 This run of the CFX Release 16.0 Solver started at 17:44:04 on 03 May
 2021 by user user on DESKTOP-77TRS1E (amd_opteron.sse2_winnt) using the
 command:
 
  "C:\Program Files\ANSYS Inc\v160\CFX\bin\perllib\cfx5solve.pl" -batch
    -ccl runInput.ccl -fullname CFX_002
 
 Release 16.0
 
  Point Releases and Patches installed:
  ANSYS, Inc. Products Release 16.0
  ANSYS Mechanical Products Release 16.0
  ANSYS Autodyn Release 16.0
  ANSYS LS-DYNA Release 16.0
  ANSYS AIM Release 16.0
  ANSYS CFX (includes ANSYS CFD-Post) Release 16.0
  ANSYS Fluent (includes ANSYS CFD-Post) Release 16.0
  ANSYS TurboGrid Release 16.0
  ANSYS Polyflow (includes ANSYS CFD-Post) Release 16.0
  ANSYS ICEM CFD Release 16.0
  ANSYS Aqwa Release 16.0
  ANSYS Composite PrepPost Release 16.0
  ANSYS Icepak (includes ANSYS CFD-Post) Release 16.0
  Catia, Version 6 Release 16.0
  ANSYS, Inc. License Manager Release 16.0
 
 Setting up CFX Solver run ...
 

 +--------------------------------------------------------------------+
 |                                                                    |
 |                    CFX Command Language for Run                    |
 |                                                                    |
 +--------------------------------------------------------------------+

 LIBRARY:
   MATERIAL: Air Ideal Gas
     Material Description = Air Ideal Gas (constant Cp)
     Material Group = Air Data, Calorically Perfect Ideal Gases
     Option = Pure Substance
     Thermodynamic State = Gas
     PROPERTIES:
       Option = General Material
       EQUATION OF STATE:
         Molar Mass = 28.96 [kg kmol^-1]
         Option = Ideal Gas
       END
       SPECIFIC HEAT CAPACITY:
         Option = Value
         Specific Heat Capacity = 1.0044E+03 [J kg^-1 K^-1]
         Specific Heat Type = Constant Pressure
       END
       REFERENCE STATE:
         Option = Specified Point
         Reference Pressure = 1 [atm]
         Reference Specific Enthalpy = 0. [J/kg]
         Reference Specific Entropy = 0. [J/kg/K]
         Reference Temperature = 25 [C]
       END
       DYNAMIC VISCOSITY:
         Dynamic Viscosity = 1.831E-05 [kg m^-1 s^-1]
         Option = Value
       END
       THERMAL CONDUCTIVITY:
         Option = Value
         Thermal Conductivity = 2.61E-2 [W m^-1 K^-1]
       END
       ABSORPTION COEFFICIENT:
         Absorption Coefficient = 0.01 [m^-1]
         Option = Value
       END
       SCATTERING COEFFICIENT:
         Option = Value
         Scattering Coefficient = 0.0 [m^-1]
       END
       REFRACTIVE INDEX:
         Option = Value
         Refractive Index = 1.0 [m m^-1]
       END
     END
   END
 END
 FLOW: Flow Analysis 1
   SOLUTION UNITS:
     Angle Units = [rad]
     Length Units = [m]
     Mass Units = [kg]
     Solid Angle Units = [sr]
     Temperature Units = [K]
     Time Units = [s]
   END
   ANALYSIS TYPE:
     Option = Steady State
     EXTERNAL SOLVER COUPLING:
       Option = None
     END
   END
   DOMAIN: Default Domain
     Coord Frame = Coord 0
     Domain Type = Fluid
     Location = B110, B137, B24, B51, B82
     BOUNDARY: Default Fluid Fluid Interface Side 1
       Boundary Type = INTERFACE
       Location = \
         F105.110,F109.110,F111.110,F132.137,F138.137,F28.24,F29.24,F54.51
       BOUNDARY CONDITIONS:
         HEAT TRANSFER:
           Option = Conservative Interface Flux
         END
         MASS AND MOMENTUM:
           Option = Conservative Interface Flux
         END
         TURBULENCE:
           Option = Conservative Interface Flux
         END
       END
     END
     BOUNDARY: Default Fluid Fluid Interface Side 2
       Boundary Type = INTERFACE
       Location = F136.137,F30.24,F52.51,F53.51,F55.51,F78.82,F83.82,F84.82
       BOUNDARY CONDITIONS:
         HEAT TRANSFER:
           Option = Conservative Interface Flux
         END
         MASS AND MOMENTUM:
           Option = Conservative Interface Flux
         END
         TURBULENCE:
           Option = Conservative Interface Flux
         END
       END
     END
     BOUNDARY: Inlet
       Boundary Type = INLET
       Location = Inlet
       BOUNDARY CONDITIONS:
         FLOW REGIME:
           Option = Subsonic
         END
         HEAT TRANSFER:
           Option = Total Temperature
           Total Temperature = 310 [K]
         END
         MASS AND MOMENTUM:
           Normal Speed = 40.5 [m s^-1]
           Option = Normal Speed
         END
         TURBULENCE:
           Option = Medium Intensity and Eddy Viscosity Ratio
         END
       END
     END
     BOUNDARY: Outlet
       Boundary Type = OUTLET
       Location = Outlet
       BOUNDARY CONDITIONS:
         FLOW REGIME:
           Option = Subsonic
         END
         MASS AND MOMENTUM:
           Option = Average Static Pressure
           Pressure Profile Blend = 0.05
           Relative Pressure = 648000 [Pa]
         END
         PRESSURE AVERAGING:
           Option = Average Over Whole Outlet
         END
       END
     END
     BOUNDARY: Wall
       Boundary Type = WALL
       Location = Wall
       BOUNDARY CONDITIONS:
         HEAT TRANSFER:
           Option = Adiabatic
         END
         MASS AND MOMENTUM:
           Option = No Slip Wall
         END
         WALL ROUGHNESS:
           Option = Smooth Wall
         END
       END
     END
     DOMAIN MODELS:
       BUOYANCY MODEL:
         Option = Non Buoyant
       END
       DOMAIN MOTION:
         Option = Stationary
       END
       MESH DEFORMATION:
         Option = None
       END
       REFERENCE PRESSURE:
         Reference Pressure = 1 [atm]
       END
     END
     FLUID DEFINITION: Fluid 1
       Material = Air Ideal Gas
       Option = Material Library
       MORPHOLOGY:
         Option = Continuous Fluid
       END
     END
     FLUID MODELS:
       COMBUSTION MODEL:
         Option = None
       END
       HEAT TRANSFER MODEL:
         Include Viscous Work Term = True
         Option = Total Energy
       END
       THERMAL RADIATION MODEL:
         Option = None
       END
       TURBULENCE MODEL:
         Option = k epsilon
       END
       TURBULENT WALL FUNCTIONS:
         High Speed Model = Off
         Option = Scalable
       END
     END
   END
   DOMAIN INTERFACE: Default Fluid Fluid Interface
     Boundary List1 = Default Fluid Fluid Interface Side 1
     Boundary List2 = Default Fluid Fluid Interface Side 2
     Interface Type = Fluid Fluid
     INTERFACE MODELS:
       Option = General Connection
       FRAME CHANGE:
         Option = None
       END
       MASS AND MOMENTUM:
         Option = Conservative Interface Flux
         MOMENTUM INTERFACE MODEL:
           Option = None
         END
       END
       PITCH CHANGE:
         Option = None
       END
     END
     MESH CONNECTION:
       Option = Automatic
     END
   END
   OUTPUT CONTROL:
     RESULTS:
       File Compression Level = Default
       Option = Standard
     END
   END
   SOLVER CONTROL:
     Turbulence Numerics = First Order
     ADVECTION SCHEME:
       Option = High Resolution
     END
     CONVERGENCE CONTROL:
       Length Scale Option = Conservative
       Maximum Number of Iterations = 1000
       Minimum Number of Iterations = 1
       Timescale Control = Auto Timescale
       Timescale Factor = 1.0
     END
     CONVERGENCE CRITERIA:
       Residual Target = 1.E-4
       Residual Type = RMS
     END
     DYNAMIC MODEL CONTROL:
       Global Dynamic Model Control = On
     END
   END
 END
 COMMAND FILE:
   Version = 16.0
   Results Version = 16.0
 END
 SIMULATION CONTROL:
   EXECUTION CONTROL:
     EXECUTABLE SELECTION:
       Double Precision = Yes
     END
     INTERPOLATOR STEP CONTROL:
       Runtime Priority = Standard
       MEMORY CONTROL:
         Memory Allocation Factor = 1.0
       END
     END
     PARALLEL HOST LIBRARY:
       HOST DEFINITION: desktop77trs1e
         Remote Host Name = DESKTOP-77TRS1E
         Host Architecture String = winnt-amd64
         Installation Root = C:\Program Files\ANSYS Inc\v%v\CFX
       END
     END
     PARTITIONER STEP CONTROL:
       Multidomain Option = Automatic
       Runtime Priority = Standard
       EXECUTABLE SELECTION:
         Use Large Problem Partitioner = Off
       END
       MEMORY CONTROL:
         Memory Allocation Factor = 1.0
       END
       PARTITION SMOOTHING:
         Maximum Partition Smoothing Sweeps = 100
         Option = Smooth
       END
       PARTITIONING TYPE:
         MeTiS Type = k-way
         Option = MeTiS
         Partition Size Rule = Automatic
       END
     END
     RUN DEFINITION:
       Run Mode = Full
       Solver Input File = CFX.def
       Solver Results File = G:/Kuliah/Tugas/Semester 10/CFD 2/CD Duct/2D CD \
         duct_pending/dp0_CFX_1_Solution_3/CFX_002.res
     END
     SOLVER STEP CONTROL:
       Runtime Priority = Standard
       MEMORY CONTROL:
         Memory Allocation Factor = 1.0
       END
       PARALLEL ENVIRONMENT:
         Number of Processes = 1
         Start Method = Serial
       END
     END
   END
 END
 

 +--------------------------------------------------------------------+
 |                                                                    |
 |                               Solver                               |
 |                                                                    |
 +--------------------------------------------------------------------+




 +--------------------------------------------------------------------+
 |                                                                    |
 |                       ANSYS(R) CFX(R) Solver                       |
 |                                                                    |
 | Release 16.0                                                       |
 | Build 16.0 2014.11.14-23.10-133146                                 |
 | Sat Nov 15 00:24:02 GMTST 2014                                     |
 |                                                                    |
 |                        Executable Attributes                       |
 |                                                                    |
 |          double-64bit-int32-supfort-optimised-noprof-lcomp         |
 |                                                                    |
 | (C) 2014 ANSYS, Inc.                                               |
 |                                                                    |
 | All rights reserved. Unauthorized use, distribution or duplication |
 | is prohibited. This product is subject to U.S. laws governing      |
 | export and re-export. For full Legal Notice, see documentation.    |
 +--------------------------------------------------------------------+




 +--------------------------------------------------------------------+
 |                  Job Information at Start of Run                   |
 +--------------------------------------------------------------------+

 Run mode:       serial run

 Host computer:  DESKTOP-77TRS1E (PID:10064)

 Job started:    Mon May 03 17:44:10 2021

 +--------------------------------------------------------------------+
 |                        License Information                         |
 +--------------------------------------------------------------------+
 
 License Cap:    ANSYS CFX Solver (Max 512K Nodes)
 License ID:     DESKTOP-77TRS1E-user-8204-009089


 +--------------------------------------------------------------------+
 |        Memory Allocated for Run  (Actual usage may be less)        |
 +--------------------------------------------------------------------+

           | Real       | Integer    | Character | Logical  | Double
 ----------+------------+------------+-----------+----------+----------
 Mwords    |     129.33 |      27.43 |      3.76 |     0.12 |     0.01
 Mbytes    |     986.70 |     104.62 |      3.58 |     0.46 |     0.06
 ----------+------------+------------+-----------+----------+----------


 +--------------------------------------------------------------------+
 |                  Host Memory Information (Mbytes)                  |
 +--------------------------------------------------------------------+
 |          Host           |     System     |   Allocated    |   %    |
 +-------------------------+----------------+----------------+--------+
 | DESKTOP-77TRS1E         |      3536.69   |      1095.42   |  30.97 |
 +-------------------------+----------------+----------------+--------+


 +--------------------------------------------------------------------+
 |                     ****** Notice ******                           |
 | The Wall Heat Transfer Coefficient written to the results file for |
 | any turbulent phase with heat transfer is based on the turbulent   |
 | wall function coefficient. It is consistent with the Wall Heat Flux|
 | the wall temperature, and the Wall Adjacent Temperature            |
 | (near-wall temperature).  If you would like it to be based on a    |
 | user-specified bulk temperature instead, please set the expert     |
 | parameter "tbulk for htc = <value>".                               |
 +--------------------------------------------------------------------+

 +--------------------------------------------------------------------+
 |                          Mesh Statistics                           |
 +--------------------------------------------------------------------+
 | Domain Name          | Orthog. Angle | Exp. Factor  | Aspect Ratio |
 +----------------------+---------------+--------------+--------------+
 |                      | Minimum [deg] |   Maximum    |    Maximum   |
 +----------------------+---------------+--------------+--------------+
 | Default Domain       |       51.8 OK |         1 OK |         5 OK |
 +----------------------+---------------+--------------+--------------+
 |                      |  %!  %ok  %OK | %!  %ok  %OK | %!  %ok  %OK |
 +----------------------+---------------+--------------+--------------+
 | Default Domain       |   0    0  100 |  0    0  100 |  0    0  100 |
 +----------------------+---------------+--------------+--------------+

 Domain Name : Default Domain

     Total Number of Nodes                                =      143157

     Total Number of Elements                             =      110400
         Total Number of Hexahedrons                      =      110400

     Total Number of Faces                                =       61352

 Domain Interface Name : Default Fluid Fluid Interface

     Discretization type                                  =         GGI
     Intersection type                                    =      Direct
     Non-overlap area fraction on side 1                  =    0.00E+00
     Non-overlap area fraction on side 2                  =    0.00E+00

 +--------------------------------------------------------------------+
 |                     Average Scale Information                      |
 +--------------------------------------------------------------------+

 Domain Name : Default Domain
     Global Length                                         = 2.0901E-01
     Minimum Extent                                        = 1.2620E-01
     Maximum Extent                                        = 2.0000E+00
     Density                                               = 8.4192E+00
     Dynamic Viscosity                                     = 1.8310E-05
     Velocity                                              = 4.0500E+01
     Advection Time                                        = 5.1607E-03
     Reynolds Number                                       = 3.8923E+06
     Speed of Sound                                        = 3.5302E+02
     Mach Number                                           = 1.1472E-01
     Thermal Conductivity                                  = 2.6100E-02
     Specific Heat Capacity at Constant Pressure           = 1.0044E+03
     Specific Heat Capacity at Constant Volume             = 7.1730E+02
     Specific Heat Ratio                                   = 1.4003E+00
     Prandtl Number                                        = 7.0462E-01

 +--------------------------------------------------------------------+
 |                Checking for Isolated Fluid Regions                 |
 +--------------------------------------------------------------------+
 
 No isolated fluid regions were found.

 +--------------------------------------------------------------------+
 |              The Equations Solved in This Calculation              |
 +--------------------------------------------------------------------+

 Subsystem : Momentum and Mass

   U-Mom
   V-Mom
   W-Mom
   P-Mass

 Subsystem : Heat Transfer

   H-Energy

 Subsystem : TurbKE and Diss.K

   K-TurbKE
   E-Diss.K
                   
 CFD Solver started: Mon May 03 17:44:22 2021


 +--------------------------------------------------------------------+
 |                       Convergence History                          |
 +--------------------------------------------------------------------+

 ======================================================================
 |                        Timescale Information                       |
 ----------------------------------------------------------------------
 |       Equation       |         Type          |      Timescale      |
 +----------------------+-----------------------+---------------------+
 | U-Mom                | Auto Timescale        |     1.54822E-03     |
 | V-Mom                | Auto Timescale        |     1.54822E-03     |
 | W-Mom                | Auto Timescale        |     1.54822E-03     |
 | P-Mass               | Auto Timescale        |     1.54822E-03     |
 +----------------------+-----------------------+---------------------+
 | H-Energy             | Auto Timescale        |     1.54822E-03     |
 +----------------------+-----------------------+---------------------+
 | K-TurbKE             | Auto Timescale        |     1.54822E-03     |
 | E-Diss.K             | Auto Timescale        |     1.54822E-03     |
 +----------------------+-----------------------+---------------------+

 ======================================================================
 OUTER LOOP ITERATION =    1                    CPU SECONDS = 1.262E+01
 ----------------------------------------------------------------------
 |       Equation       | Rate | RMS Res | Max Res |  Linear Solution |
 +----------------------+------+---------+---------+------------------+
 | U-Mom                | 0.00 | 1.5E-03 | 8.6E-03 |       1.3E-01  ok|
 | V-Mom                | 0.00 | 1.6E-05 | 1.1E-04 |       6.1E+00  ok|
 | W-Mom                | 0.00 | 1.6E-05 | 1.1E-04 |       7.3E+00  ok|
 | P-Mass               | 0.00 | 8.3E-05 | 4.8E-04 |  8.8  9.5E-02  OK|
 +----------------------+------+---------+---------+------------------+
 | H-Energy             | 0.00 | 5.0E-02 | 1.0E+00 |  5.8  1.1E-04  OK|
 +----------------------+------+---------+---------+------------------+
 | K-TurbKE             | 0.00 | 9.3E-01 | 1.1E+00 |  5.8  4.2E-11  OK|
 | E-Diss.K             | 0.00 | 3.3E+00 | 3.8E+00 |  7.4  3.4E-13  OK|
 +----------------------+------+---------+---------+------------------+

 ======================================================================
 OUTER LOOP ITERATION =    2                    CPU SECONDS = 4.378E+01
 ----------------------------------------------------------------------
 |       Equation       | Rate | RMS Res | Max Res |  Linear Solution |
 +----------------------+------+---------+---------+------------------+
 | U-Mom                | 4.43 | 6.6E-03 | 1.3E-02 |       1.5E-03  OK|
 | V-Mom                |33.16 | 5.2E-04 | 2.3E-03 |       6.9E-02  OK|
 | W-Mom                |35.15 | 5.5E-04 | 4.1E-03 |       1.1E-01  ok|
 | P-Mass               | 0.40 | 3.3E-05 | 8.5E-04 | 16.7  2.4E-01  ok|
 +----------------------+------+---------+---------+------------------+
 | H-Energy             | 0.17 | 8.6E-03 | 6.8E-02 |  5.8  3.8E-05  OK|
 +----------------------+------+---------+---------+------------------+
 | K-TurbKE             | 0.02 | 2.2E-02 | 1.5E-01 |  5.8  2.4E-05  OK|
 | E-Diss.K             | 0.03 | 1.1E-01 | 9.3E-01 |  7.4  2.3E-11  OK|
 +----------------------+------+---------+---------+------------------+

 ======================================================================
 OUTER LOOP ITERATION =    3                    CPU SECONDS = 7.459E+01
 ----------------------------------------------------------------------
 |       Equation       | Rate | RMS Res | Max Res |  Linear Solution |
 +----------------------+------+---------+---------+------------------+
 | U-Mom                | 0.93 | 6.1E-03 | 1.4E-02 |       2.8E-03  OK|
 | V-Mom                | 0.29 | 1.5E-04 | 2.0E-03 |       5.7E-01  ok|
 | W-Mom                | 0.38 | 2.1E-04 | 6.4E-03 |       8.5E-01  ok|
 | P-Mass               | 1.26 | 4.2E-05 | 1.0E-03 | 16.7  3.8E-01  ok|
 +----------------------+------+---------+---------+------------------+
 | H-Energy             | 0.63 | 5.4E-03 | 2.1E-02 |  5.8  9.4E-06  OK|
 +----------------------+------+---------+---------+------------------+
 | K-TurbKE             | 0.73 | 1.6E-02 | 1.0E-01 |  5.8  1.3E-05  OK|
 | E-Diss.K             | 0.64 | 7.0E-02 | 5.5E-01 |  7.4  5.2E-09  OK|
 +----------------------+------+---------+---------+------------------+

 ======================================================================
 OUTER LOOP ITERATION =    4                    CPU SECONDS = 1.054E+02
 ----------------------------------------------------------------------
 |       Equation       | Rate | RMS Res | Max Res |  Linear Solution |
 +----------------------+------+---------+---------+------------------+
 | U-Mom                | 0.85 | 5.2E-03 | 3.1E-02 |       5.4E-03  OK|
 | V-Mom                | 0.78 | 1.2E-04 | 1.9E-03 |       1.4E+00  F |
 | W-Mom                | 1.18 | 2.4E-04 | 8.6E-03 |       1.3E+00  F |
 | P-Mass               | 1.25 | 5.2E-05 | 1.5E-03 | 12.8  4.6E-01  ok|
 +----------------------+------+---------+---------+------------------+
 | H-Energy             | 0.75 | 4.1E-03 | 2.3E-02 |  5.8  5.2E-05  OK|
 +----------------------+------+---------+---------+------------------+
 | K-TurbKE             | 0.79 | 1.3E-02 | 1.2E-01 |  5.8  8.1E-06  OK|
 | E-Diss.K             | 0.78 | 5.4E-02 | 6.4E-01 |  7.4  1.7E-06  OK|
 +----------------------+------+---------+---------+------------------+

 ======================================================================
 OUTER LOOP ITERATION =    5                    CPU SECONDS = 1.351E+02
 ----------------------------------------------------------------------
 |       Equation       | Rate | RMS Res | Max Res |  Linear Solution |
 +----------------------+------+---------+---------+------------------+
 | U-Mom                | 0.79 | 4.1E-03 | 1.6E-02 |       7.3E-03  OK|
 | V-Mom                | 1.27 | 1.5E-04 | 3.3E-03 |       1.2E+00  F |
 | W-Mom                | 0.95 | 2.3E-04 | 6.8E-03 |       1.4E+00  F |
 | P-Mass               | 1.06 | 5.5E-05 | 1.1E-03 | 12.8  6.3E-01  ok|
 +----------------------+------+---------+---------+------------------+
 | H-Energy             | 0.81 | 3.3E-03 | 5.8E-02 |  5.8  1.8E-04  OK|
 +----------------------+------+---------+---------+------------------+
 | K-TurbKE             | 0.68 | 8.9E-03 | 1.2E-01 |  5.8  2.3E-05  OK|
 | E-Diss.K             | 0.90 | 4.9E-02 | 6.7E-01 |  7.4  4.6E-06  OK|
 +----------------------+------+---------+---------+------------------+

 ======================================================================
 |                        Timescale Information                       |
 ----------------------------------------------------------------------
 |       Equation       |         Type          |      Timescale      |
 +----------------------+-----------------------+---------------------+
 | U-Mom                | Auto Timescale        |     2.01998E-04     |
 | V-Mom                | Auto Timescale        |     2.01998E-04     |
 | W-Mom                | Auto Timescale        |     2.01998E-04     |
 | P-Mass               | Auto Timescale        |     2.01998E-04     |
 +----------------------+-----------------------+---------------------+
 | H-Energy             | Auto Timescale        |     2.01998E-04     |
 +----------------------+-----------------------+---------------------+
 | K-TurbKE             | Auto Timescale        |     2.01998E-04     |
 | E-Diss.K             | Auto Timescale        |     2.01998E-04     |
 +----------------------+-----------------------+---------------------+

 ======================================================================
 OUTER LOOP ITERATION =    6                    CPU SECONDS = 1.649E+02
 ----------------------------------------------------------------------
 |       Equation       | Rate | RMS Res | Max Res |  Linear Solution |
 +----------------------+------+---------+---------+------------------+
 | U-Mom                | 0.86 | 3.5E-03 | 2.8E-02 |       1.1E-03  OK|
 | V-Mom                | 1.03 | 1.5E-04 | 2.8E-03 |       6.4E-02  OK|
 | W-Mom                | 1.25 | 2.9E-04 | 9.3E-03 |       7.8E-02  OK|
 | P-Mass               | 1.64 | 9.0E-05 | 3.0E-03 |  8.8  3.0E-02  OK|
 +----------------------+------+---------+---------+------------------+
 | H-Energy             | 2.17 | 7.1E-03 | 1.3E-01 |  5.8  5.3E-07  OK|
 +----------------------+------+---------+---------+------------------+
 | K-TurbKE             | 1.37 | 1.2E-02 | 2.0E-01 |  5.8  8.9E-07  OK|
 | E-Diss.K             | 0.48 | 2.4E-02 | 4.3E-01 |  7.4  2.4E-07  OK|
 +----------------------+------+---------+---------+------------------+

 ======================================================================
 OUTER LOOP ITERATION =    7                    CPU SECONDS = 1.940E+02
 ----------------------------------------------------------------------
 |       Equation       | Rate | RMS Res | Max Res |  Linear Solution |
 +----------------------+------+---------+---------+------------------+
 | U-Mom                | 0.98 | 3.5E-03 | 2.1E-02 |       5.0E-03  OK|
 | V-Mom                | 0.69 | 1.1E-04 | 2.1E-03 |       1.3E-01  ok|
 | W-Mom                | 0.57 | 1.6E-04 | 5.1E-03 |       1.3E-01  ok|
 | P-Mass               | 0.29 | 2.6E-05 | 5.5E-04 |  4.9  5.3E-02  OK|
 +----------------------+------+---------+---------+------------------+
 | H-Energy             | 1.46 | 1.0E-02 | 2.1E-01 |  5.8  1.6E-06  OK|
 +----------------------+------+---------+---------+------------------+
 | K-TurbKE             | 0.84 | 1.0E-02 | 1.7E-01 |  5.8  9.1E-07  OK|
 | E-Diss.K             | 1.35 | 3.2E-02 | 7.4E-01 |  7.4  2.2E-07  OK|
 +----------------------+------+---------+---------+------------------+

 ======================================================================
 OUTER LOOP ITERATION =    8                    CPU SECONDS = 2.220E+02
 ----------------------------------------------------------------------
 |       Equation       | Rate | RMS Res | Max Res |  Linear Solution |
 +----------------------+------+---------+---------+------------------+
 | U-Mom                | 1.02 | 3.5E-03 | 2.3E-02 |       7.0E-03  OK|
 | V-Mom                | 0.57 | 6.0E-05 | 9.4E-04 |       2.1E-01  ok|
 | W-Mom                | 0.51 | 8.3E-05 | 2.4E-03 |       2.0E-01  ok|
 | P-Mass               | 0.61 | 1.6E-05 | 1.8E-04 |  4.9  7.5E-02  OK|
 +----------------------+------+---------+---------+------------------+
 | H-Energy             | 0.80 | 8.3E-03 | 1.1E-01 |  5.8  4.4E-06  OK|
 +----------------------+------+---------+---------+------------------+
 | K-TurbKE             | 0.85 | 8.7E-03 | 8.2E-02 |  5.8  1.6E-06  OK|
 | E-Diss.K             | 0.84 | 2.7E-02 | 4.6E-01 |  7.4  3.5E-07  OK|
 +----------------------+------+---------+---------+------------------+

 ======================================================================
 OUTER LOOP ITERATION =    9                    CPU SECONDS = 2.502E+02
 ----------------------------------------------------------------------
 |       Equation       | Rate | RMS Res | Max Res |  Linear Solution |
 +----------------------+------+---------+---------+------------------+
 | U-Mom                | 0.95 | 3.3E-03 | 1.6E-02 |       7.9E-03  OK|
 | V-Mom                | 0.81 | 4.9E-05 | 7.2E-04 |       2.5E-01  ok|
 | W-Mom                | 0.70 | 5.9E-05 | 1.5E-03 |       2.5E-01  ok|
 | P-Mass               | 0.96 | 1.6E-05 | 1.1E-04 |  4.9  8.1E-02  OK|
 +----------------------+------+---------+---------+------------------+
 | H-Energy             | 0.86 | 7.2E-03 | 6.8E-02 |  5.8  1.3E-05  OK|
 +----------------------+------+---------+---------+------------------+
 | K-TurbKE             | 0.95 | 8.3E-03 | 8.9E-02 |  5.8  3.9E-06  OK|
 | E-Diss.K             | 0.77 | 2.1E-02 | 1.7E-01 |  7.4  9.2E-07  OK|
 +----------------------+------+---------+---------+------------------+

 ======================================================================
 OUTER LOOP ITERATION =   10                    CPU SECONDS = 2.781E+02
 ----------------------------------------------------------------------
 |       Equation       | Rate | RMS Res | Max Res |  Linear Solution |
 +----------------------+------+---------+---------+------------------+
 | U-Mom                | 0.91 | 3.0E-03 | 1.6E-02 |       7.6E-03  OK|
 | V-Mom                | 0.86 | 4.2E-05 | 4.8E-04 |       2.7E-01  ok|
 | W-Mom                | 0.79 | 4.6E-05 | 9.2E-04 |       2.8E-01  ok|
 | P-Mass               | 1.03 | 1.6E-05 | 8.9E-05 |  4.9  7.4E-02  OK|
 +----------------------+------+---------+---------+------------------+
 | H-Energy             | 0.78 | 5.6E-03 | 6.0E-02 |  5.8  1.4E-05  OK|
 +----------------------+------+---------+---------+------------------+
 | K-TurbKE             | 1.09 | 9.0E-03 | 1.1E-01 |  5.8  1.0E-05  OK|
 | E-Diss.K             | 0.82 | 1.7E-02 | 1.8E-01 |  7.4  3.0E-06  OK|
 +----------------------+------+---------+---------+------------------+

 ======================================================================
 |                        Timescale Information                       |
 ----------------------------------------------------------------------
 |       Equation       |         Type          |      Timescale      |
 +----------------------+-----------------------+---------------------+
 | U-Mom                | Auto Timescale        |     2.02570E-04     |
 | V-Mom                | Auto Timescale        |     2.02570E-04     |
 | W-Mom                | Auto Timescale        |     2.02570E-04     |
 | P-Mass               | Auto Timescale        |     2.02570E-04     |
 +----------------------+-----------------------+---------------------+
 | H-Energy             | Auto Timescale        |     2.02570E-04     |
 +----------------------+-----------------------+---------------------+
 | K-TurbKE             | Auto Timescale        |     2.02570E-04     |
 | E-Diss.K             | Auto Timescale        |     2.02570E-04     |
 +----------------------+-----------------------+---------------------+

 ======================================================================
 OUTER LOOP ITERATION =   11                    CPU SECONDS = 3.065E+02
 ----------------------------------------------------------------------
 |       Equation       | Rate | RMS Res | Max Res |  Linear Solution |
 +----------------------+------+---------+---------+------------------+
 | U-Mom                | 0.91 | 2.7E-03 | 1.4E-02 |       7.1E-03  OK|
 | V-Mom                | 0.88 | 3.7E-05 | 7.0E-04 |       2.7E-01  ok|
 | W-Mom                | 0.84 | 3.9E-05 | 7.0E-04 |       2.9E-01  ok|
 | P-Mass               | 1.04 | 1.7E-05 | 9.1E-05 |  4.9  6.4E-02  OK|
 +----------------------+------+---------+---------+------------------+
 | H-Energy             | 0.78 | 4.4E-03 | 4.2E-02 |  5.8  1.7E-05  OK|
 +----------------------+------+---------+---------+------------------+
 | K-TurbKE             | 0.97 | 8.7E-03 | 8.6E-02 |  5.8  2.2E-05  OK|
 | E-Diss.K             | 0.81 | 1.4E-02 | 1.6E-01 |  7.4  7.3E-06  OK|
 +----------------------+------+---------+---------+------------------+

 ======================================================================
 OUTER LOOP ITERATION =   12                    CPU SECONDS = 3.346E+02
 ----------------------------------------------------------------------
 |       Equation       | Rate | RMS Res | Max Res |  Linear Solution |
 +----------------------+------+---------+---------+------------------+
 | U-Mom                | 0.92 | 2.5E-03 | 1.2E-02 |       6.7E-03  OK|
 | V-Mom                | 0.90 | 3.3E-05 | 9.0E-04 |       2.7E-01  ok|
 | W-Mom                | 0.87 | 3.4E-05 | 8.7E-04 |       2.9E-01  ok|
 | P-Mass               | 1.05 | 1.7E-05 | 1.0E-04 |  4.9  5.8E-02  OK|
 +----------------------+------+---------+---------+------------------+
 | H-Energy             | 0.84 | 3.7E-03 | 4.4E-02 |  5.8  3.1E-05  OK|
 +----------------------+------+---------+---------+------------------+
 | K-TurbKE             | 0.89 | 7.7E-03 | 5.5E-02 |  5.8  4.5E-05  OK|
 | E-Diss.K             | 0.79 | 1.1E-02 | 1.0E-01 |  7.4  1.5E-05  OK|
 +----------------------+------+---------+---------+------------------+

 ======================================================================
 OUTER LOOP ITERATION =   13                    CPU SECONDS = 3.626E+02
 ----------------------------------------------------------------------
 |       Equation       | Rate | RMS Res | Max Res |  Linear Solution |
 +----------------------+------+---------+---------+------------------+
 | U-Mom                | 0.93 | 2.3E-03 | 1.2E-02 |       6.5E-03  OK|
 | V-Mom                | 0.91 | 3.0E-05 | 8.5E-04 |       2.8E-01  ok|
 | W-Mom                | 0.89 | 3.0E-05 | 8.2E-04 |       2.9E-01  ok|
 | P-Mass               | 1.04 | 1.8E-05 | 1.1E-04 |  4.9  5.5E-02  OK|
 +----------------------+------+---------+---------+------------------+
 | H-Energy             | 0.83 | 3.0E-03 | 3.9E-02 |  5.8  5.7E-05  OK|
 +----------------------+------+---------+---------+------------------+
 | K-TurbKE             | 0.86 | 6.6E-03 | 4.0E-02 |  5.8  8.3E-05  OK|
 | E-Diss.K             | 0.79 | 8.4E-03 | 9.7E-02 |  7.4  2.7E-05  OK|
 +----------------------+------+---------+---------+------------------+

 ======================================================================
 OUTER LOOP ITERATION =   14                    CPU SECONDS = 3.906E+02
 ----------------------------------------------------------------------
 |       Equation       | Rate | RMS Res | Max Res |  Linear Solution |
 +----------------------+------+---------+---------+------------------+
 | U-Mom                | 0.94 | 2.2E-03 | 1.0E-02 |       6.3E-03  OK|
 | V-Mom                | 0.89 | 2.7E-05 | 7.0E-04 |       3.0E-01  ok|
 | W-Mom                | 0.88 | 2.7E-05 | 6.4E-04 |       3.1E-01  ok|
 | P-Mass               | 1.03 | 1.9E-05 | 1.2E-04 |  4.9  5.4E-02  OK|
 +----------------------+------+---------+---------+------------------+
 | H-Energy             | 0.87 | 2.7E-03 | 2.9E-02 |  5.8  8.1E-05  OK|
 +----------------------+------+---------+---------+------------------+
 | K-TurbKE             | 0.84 | 5.6E-03 | 3.8E-02 |  5.8  1.3E-04  OK|
 | E-Diss.K             | 0.83 | 7.0E-03 | 8.0E-02 |  7.4  4.3E-05  OK|
 +----------------------+------+---------+---------+------------------+

 ======================================================================
 OUTER LOOP ITERATION =   15                    CPU SECONDS = 4.186E+02
 ----------------------------------------------------------------------
 |       Equation       | Rate | RMS Res | Max Res |  Linear Solution |
 +----------------------+------+---------+---------+------------------+
 | U-Mom                | 0.94 | 2.1E-03 | 8.2E-03 |       6.1E-03  OK|
 | V-Mom                | 0.88 | 2.4E-05 | 5.2E-04 |       3.4E-01  ok|
 | W-Mom                | 0.88 | 2.3E-05 | 5.5E-04 |       3.5E-01  ok|
 | P-Mass               | 1.02 | 1.9E-05 | 1.3E-04 |  4.9  5.2E-02  OK|
 +----------------------+------+---------+---------+------------------+
 | H-Energy             | 0.96 | 2.6E-03 | 3.5E-02 |  5.8  8.2E-05  OK|
 +----------------------+------+---------+---------+------------------+
 | K-TurbKE             | 0.83 | 4.7E-03 | 3.3E-02 |  5.8  1.6E-04  OK|
 | E-Diss.K             | 0.92 | 6.4E-03 | 6.7E-02 |  7.4  5.8E-05  OK|
 +----------------------+------+---------+---------+------------------+

 ======================================================================
 |                        Timescale Information                       |
 ----------------------------------------------------------------------
 |       Equation       |         Type          |      Timescale      |
 +----------------------+-----------------------+---------------------+
 | U-Mom                | Auto Timescale        |     2.03211E-04     |
 | V-Mom                | Auto Timescale        |     2.03211E-04     |
 | W-Mom                | Auto Timescale        |     2.03211E-04     |
 | P-Mass               | Auto Timescale        |     2.03211E-04     |
 +----------------------+-----------------------+---------------------+
 | H-Energy             | Auto Timescale        |     2.03211E-04     |
 +----------------------+-----------------------+---------------------+
 | K-TurbKE             | Auto Timescale        |     2.03211E-04     |
 | E-Diss.K             | Auto Timescale        |     2.03211E-04     |
 +----------------------+-----------------------+---------------------+

 ======================================================================
 OUTER LOOP ITERATION =   16                    CPU SECONDS = 4.465E+02
 ----------------------------------------------------------------------
 |       Equation       | Rate | RMS Res | Max Res |  Linear Solution |
 +----------------------+------+---------+---------+------------------+
 | U-Mom                | 0.95 | 1.9E-03 | 6.6E-03 |       6.0E-03  OK|
 | V-Mom                | 0.89 | 2.1E-05 | 4.1E-04 |       3.8E-01  ok|
 | W-Mom                | 0.90 | 2.1E-05 | 4.2E-04 |       3.9E-01  ok|
 | P-Mass               | 1.02 | 1.9E-05 | 1.3E-04 |  4.9  5.1E-02  OK|
 +----------------------+------+---------+---------+------------------+
 | H-Energy             | 1.02 | 2.6E-03 | 3.2E-02 |  5.8  6.4E-05  OK|
 +----------------------+------+---------+---------+------------------+
 | K-TurbKE             | 0.85 | 4.0E-03 | 2.6E-02 |  5.8  1.8E-04  OK|
 | E-Diss.K             | 1.00 | 6.4E-03 | 6.1E-02 |  7.4  6.9E-05  OK|
 +----------------------+------+---------+---------+------------------+

 ======================================================================
 OUTER LOOP ITERATION =   17                    CPU SECONDS = 4.745E+02
 ----------------------------------------------------------------------
 |       Equation       | Rate | RMS Res | Max Res |  Linear Solution |
 +----------------------+------+---------+---------+------------------+
 | U-Mom                | 0.95 | 1.8E-03 | 5.4E-03 |       5.9E-03  OK|
 | V-Mom                | 0.92 | 1.9E-05 | 3.9E-04 |       4.0E-01  ok|
 | W-Mom                | 0.92 | 1.9E-05 | 3.6E-04 |       4.1E-01  ok|
 | P-Mass               | 1.01 | 2.0E-05 | 1.3E-04 |  4.9  5.0E-02  OK|
 +----------------------+------+---------+---------+------------------+
 | H-Energy             | 1.06 | 2.8E-03 | 3.1E-02 |  5.8  5.5E-05  OK|
 +----------------------+------+---------+---------+------------------+
 | K-TurbKE             | 0.87 | 3.4E-03 | 2.5E-02 |  5.8  1.9E-04  OK|
 | E-Diss.K             | 1.05 | 6.7E-03 | 6.0E-02 |  7.4  7.5E-05  OK|
 +----------------------+------+---------+---------+------------------+

 ======================================================================
 OUTER LOOP ITERATION =   18                    CPU SECONDS = 5.025E+02
 ----------------------------------------------------------------------
 |       Equation       | Rate | RMS Res | Max Res |  Linear Solution |
 +----------------------+------+---------+---------+------------------+
 | U-Mom                | 0.95 | 1.8E-03 | 4.7E-03 |       5.9E-03  OK|
 | V-Mom                | 0.93 | 1.8E-05 | 3.6E-04 |       4.1E-01  ok|
 | W-Mom                | 0.93 | 1.8E-05 | 3.9E-04 |       4.2E-01  ok|
 | P-Mass               | 1.01 | 2.0E-05 | 1.2E-04 |  4.9  5.0E-02  OK|
 +----------------------+------+---------+---------+------------------+
 | H-Energy             | 1.08 | 3.0E-03 | 3.1E-02 |  5.8  8.1E-05  OK|
 +----------------------+------+---------+---------+------------------+
 | K-TurbKE             | 0.89 | 3.0E-03 | 2.4E-02 |  5.8  2.1E-04  OK|
 | E-Diss.K             | 1.06 | 7.2E-03 | 6.0E-02 |  7.4  8.0E-05  OK|
 +----------------------+------+---------+---------+------------------+

 ======================================================================
 OUTER LOOP ITERATION =   19                    CPU SECONDS = 5.303E+02
 ----------------------------------------------------------------------
 |       Equation       | Rate | RMS Res | Max Res |  Linear Solution |
 +----------------------+------+---------+---------+------------------+
 | U-Mom                | 0.95 | 1.7E-03 | 4.4E-03 |       5.8E-03  OK|
 | V-Mom                | 0.94 | 1.7E-05 | 2.9E-04 |       4.3E-01  ok|
 | W-Mom                | 0.94 | 1.7E-05 | 3.7E-04 |       4.4E-01  ok|
 | P-Mass               | 1.00 | 2.0E-05 | 1.2E-04 |  4.9  4.9E-02  OK|
 +----------------------+------+---------+---------+------------------+
 | H-Energy             | 1.00 | 3.0E-03 | 2.9E-02 |  5.8  1.2E-04  OK|
 +----------------------+------+---------+---------+------------------+
 | K-TurbKE             | 0.92 | 2.8E-03 | 2.4E-02 |  5.8  2.5E-04  OK|
 | E-Diss.K             | 1.05 | 7.5E-03 | 5.9E-02 |  7.4  8.3E-05  OK|
 +----------------------+------+---------+---------+------------------+

 ======================================================================
 OUTER LOOP ITERATION =   20                    CPU SECONDS = 5.584E+02
 ----------------------------------------------------------------------
 |       Equation       | Rate | RMS Res | Max Res |  Linear Solution |
 +----------------------+------+---------+---------+------------------+
 | U-Mom                | 0.95 | 1.6E-03 | 4.1E-03 |       5.8E-03  OK|
 | V-Mom                | 0.95 | 1.6E-05 | 2.8E-04 |       4.4E-01  ok|
 | W-Mom                | 0.95 | 1.6E-05 | 3.4E-04 |       4.5E-01  ok|
 | P-Mass               | 1.00 | 2.0E-05 | 1.2E-04 |  4.9  4.9E-02  OK|
 +----------------------+------+---------+---------+------------------+
 | H-Energy             | 1.00 | 3.0E-03 | 2.6E-02 |  5.8  1.5E-04  OK|
 +----------------------+------+---------+---------+------------------+
 | K-TurbKE             | 0.93 | 2.6E-03 | 2.2E-02 |  5.8  3.1E-04  OK|
 | E-Diss.K             | 1.04 | 7.8E-03 | 5.8E-02 |  7.4  8.5E-05  OK|
 +----------------------+------+---------+---------+------------------+

 ======================================================================
 |                        Timescale Information                       |
 ----------------------------------------------------------------------
 |       Equation       |         Type          |      Timescale      |
 +----------------------+-----------------------+---------------------+
 | U-Mom                | Auto Timescale        |     2.03947E-04     |
 | V-Mom                | Auto Timescale        |     2.03947E-04     |
 | W-Mom                | Auto Timescale        |     2.03947E-04     |
 | P-Mass               | Auto Timescale        |     2.03947E-04     |
 +----------------------+-----------------------+---------------------+
 | H-Energy             | Auto Timescale        |     2.03947E-04     |
 +----------------------+-----------------------+---------------------+
 | K-TurbKE             | Auto Timescale        |     2.03947E-04     |
 | E-Diss.K             | Auto Timescale        |     2.03947E-04     |
 +----------------------+-----------------------+---------------------+

 ======================================================================
 OUTER LOOP ITERATION =   21                    CPU SECONDS = 5.863E+02
 ----------------------------------------------------------------------
 |       Equation       | Rate | RMS Res | Max Res |  Linear Solution |
 +----------------------+------+---------+---------+------------------+
 | U-Mom                | 0.96 | 1.5E-03 | 3.8E-03 |       5.8E-03  OK|
 | V-Mom                | 0.95 | 1.5E-05 | 2.7E-04 |       4.6E-01  ok|
 | W-Mom                | 0.96 | 1.6E-05 | 3.9E-04 |       4.7E-01  ok|
 | P-Mass               | 1.01 | 2.0E-05 | 1.2E-04 |  4.9  5.0E-02  OK|
 +----------------------+------+---------+---------+------------------+
 | H-Energy             | 0.99 | 2.9E-03 | 2.3E-02 |  5.8  2.0E-04  OK|
 +----------------------+------+---------+---------+------------------+
 | K-TurbKE             | 0.94 | 2.4E-03 | 2.1E-02 |  5.8  3.9E-04  OK|
 | E-Diss.K             | 1.03 | 8.0E-03 | 5.7E-02 |  7.4  8.9E-05  OK|
 +----------------------+------+---------+---------+------------------+

 ======================================================================
 OUTER LOOP ITERATION =   22                    CPU SECONDS = 6.152E+02
 ----------------------------------------------------------------------
 |       Equation       | Rate | RMS Res | Max Res |  Linear Solution |
 +----------------------+------+---------+---------+------------------+
 | U-Mom                | 0.96 | 1.5E-03 | 3.5E-03 |       5.7E-03  OK|
 | V-Mom                | 0.96 | 1.5E-05 | 2.4E-04 |       4.8E-01  ok|
 | W-Mom                | 0.97 | 1.5E-05 | 3.6E-04 |       4.8E-01  ok|
 | P-Mass               | 1.01 | 2.0E-05 | 1.2E-04 |  4.9  5.2E-02  OK|
 +----------------------+------+---------+---------+------------------+
 | H-Energy             | 0.99 | 2.9E-03 | 2.1E-02 |  5.8  2.5E-04  OK|
 +----------------------+------+---------+---------+------------------+
 | K-TurbKE             | 0.96 | 2.3E-03 | 1.9E-02 |  5.8  4.9E-04  OK|
 | E-Diss.K             | 1.01 | 8.1E-03 | 5.6E-02 |  7.4  9.5E-05  OK|
 +----------------------+------+---------+---------+------------------+

 ======================================================================
 OUTER LOOP ITERATION =   23                    CPU SECONDS = 6.433E+02
 ----------------------------------------------------------------------
 |       Equation       | Rate | RMS Res | Max Res |  Linear Solution |
 +----------------------+------+---------+---------+------------------+
 | U-Mom                | 0.96 | 1.4E-03 | 3.2E-03 |       5.6E-03  OK|
 | V-Mom                | 0.97 | 1.4E-05 | 2.0E-04 |       5.0E-01  ok|
 | W-Mom                | 0.97 | 1.5E-05 | 3.1E-04 |       5.0E-01  ok|
 | P-Mass               | 1.02 | 2.1E-05 | 1.1E-04 |  4.9  5.4E-02  OK|
 +----------------------+------+---------+---------+------------------+
 | H-Energy             | 0.99 | 2.9E-03 | 2.0E-02 |  5.8  3.2E-04  OK|
 +----------------------+------+---------+---------+------------------+
 | K-TurbKE             | 0.97 | 2.3E-03 | 1.8E-02 |  5.8  5.9E-04  OK|
 | E-Diss.K             | 1.01 | 8.2E-03 | 5.6E-02 |  7.4  1.0E-04  OK|
 +----------------------+------+---------+---------+------------------+

 ======================================================================
 OUTER LOOP ITERATION =   24                    CPU SECONDS = 6.714E+02
 ----------------------------------------------------------------------
 |       Equation       | Rate | RMS Res | Max Res |  Linear Solution |
 +----------------------+------+---------+---------+------------------+
 | U-Mom                | 0.96 | 1.3E-03 | 3.0E-03 |       5.6E-03  OK|
 | V-Mom                | 0.97 | 1.4E-05 | 2.0E-04 |       5.3E-01  ok|
 | W-Mom                | 0.97 | 1.4E-05 | 2.8E-04 |       5.3E-01  ok|
 | P-Mass               | 1.02 | 2.1E-05 | 1.1E-04 |  4.9  5.8E-02  OK|
 +----------------------+------+---------+---------+------------------+
 | H-Energy             | 0.99 | 2.9E-03 | 1.9E-02 |  5.8  4.0E-04  OK|
 +----------------------+------+---------+---------+------------------+
 | K-TurbKE             | 0.97 | 2.2E-03 | 1.6E-02 |  5.8  7.0E-04  OK|
 | E-Diss.K             | 1.00 | 8.2E-03 | 5.5E-02 |  7.4  1.2E-04  OK|
 +----------------------+------+---------+---------+------------------+

 ======================================================================
 OUTER LOOP ITERATION =   25                    CPU SECONDS = 6.995E+02
 ----------------------------------------------------------------------
 |       Equation       | Rate | RMS Res | Max Res |  Linear Solution |
 +----------------------+------+---------+---------+------------------+
 | U-Mom                | 0.96 | 1.3E-03 | 2.7E-03 |       5.6E-03  OK|
 | V-Mom                | 0.98 | 1.4E-05 | 1.8E-04 |       5.6E-01  ok|
 | W-Mom                | 0.98 | 1.4E-05 | 2.2E-04 |       5.6E-01  ok|
 | P-Mass               | 1.03 | 2.2E-05 | 1.1E-04 |  4.9  6.2E-02  OK|
 +----------------------+------+---------+---------+------------------+
 | H-Energy             | 0.96 | 2.7E-03 | 1.7E-02 |  5.8  4.9E-04  OK|
 +----------------------+------+---------+---------+------------------+
 | K-TurbKE             | 0.97 | 2.1E-03 | 1.3E-02 |  5.8  8.0E-04  OK|
 | E-Diss.K             | 0.99 | 8.1E-03 | 5.4E-02 |  7.4  1.3E-04  OK|
 +----------------------+------+---------+---------+------------------+

 ======================================================================
 |                        Timescale Information                       |
 ----------------------------------------------------------------------
 |       Equation       |         Type          |      Timescale      |
 +----------------------+-----------------------+---------------------+
 | U-Mom                | Auto Timescale        |     2.04758E-04     |
 | V-Mom                | Auto Timescale        |     2.04758E-04     |
 | W-Mom                | Auto Timescale        |     2.04758E-04     |
 | P-Mass               | Auto Timescale        |     2.04758E-04     |
 +----------------------+-----------------------+---------------------+
 | H-Energy             | Auto Timescale        |     2.04758E-04     |
 +----------------------+-----------------------+---------------------+
 | K-TurbKE             | Auto Timescale        |     2.04758E-04     |
 | E-Diss.K             | Auto Timescale        |     2.04758E-04     |
 +----------------------+-----------------------+---------------------+

 ======================================================================
 OUTER LOOP ITERATION =   26                    CPU SECONDS = 7.275E+02
 ----------------------------------------------------------------------
 |       Equation       | Rate | RMS Res | Max Res |  Linear Solution |
 +----------------------+------+---------+---------+------------------+
 | U-Mom                | 0.96 | 1.2E-03 | 2.5E-03 |       5.7E-03  OK|
 | V-Mom                | 0.98 | 1.3E-05 | 1.5E-04 |       5.9E-01  ok|
 | W-Mom                | 0.98 | 1.4E-05 | 1.7E-04 |       6.0E-01  ok|
 | P-Mass               | 1.03 | 2.2E-05 | 1.1E-04 |  4.9  6.7E-02  OK|
 +----------------------+------+---------+---------+------------------+
 | H-Energy             | 0.93 | 2.6E-03 | 1.6E-02 |  5.8  5.9E-04  OK|
 +----------------------+------+---------+---------+------------------+
 | K-TurbKE             | 0.97 | 2.1E-03 | 1.1E-02 |  5.8  9.0E-04  OK|
 | E-Diss.K             | 0.99 | 8.0E-03 | 5.4E-02 |  7.4  1.4E-04  OK|
 +----------------------+------+---------+---------+------------------+

 ======================================================================
 OUTER LOOP ITERATION =   27                    CPU SECONDS = 7.557E+02
 ----------------------------------------------------------------------
 |       Equation       | Rate | RMS Res | Max Res |  Linear Solution |
 +----------------------+------+---------+---------+------------------+
 | U-Mom                | 0.96 | 1.2E-03 | 2.3E-03 |       5.9E-03  OK|
 | V-Mom                | 0.99 | 1.3E-05 | 1.2E-04 |       6.2E-01  ok|
 | W-Mom                | 0.98 | 1.3E-05 | 1.3E-04 |       6.3E-01  ok|
 | P-Mass               | 1.03 | 2.3E-05 | 1.0E-04 |  4.9  7.2E-02  OK|
 +----------------------+------+---------+---------+------------------+
 | H-Energy             | 0.93 | 2.4E-03 | 1.4E-02 |  5.8  6.9E-04  OK|
 +----------------------+------+---------+---------+------------------+
 | K-TurbKE             | 0.97 | 2.0E-03 | 1.0E-02 |  5.8  9.6E-04  OK|
 | E-Diss.K             | 0.99 | 8.0E-03 | 5.3E-02 |  7.4  1.5E-04  OK|
 +----------------------+------+---------+---------+------------------+

 ======================================================================
 OUTER LOOP ITERATION =   28                    CPU SECONDS = 7.840E+02
 ----------------------------------------------------------------------
 |       Equation       | Rate | RMS Res | Max Res |  Linear Solution |
 +----------------------+------+---------+---------+------------------+
 | U-Mom                | 0.96 | 1.1E-03 | 2.2E-03 |       6.1E-03  OK|
 | V-Mom                | 0.99 | 1.3E-05 | 9.6E-05 |       6.6E-01  ok|
 | W-Mom                | 0.98 | 1.3E-05 | 1.1E-04 |       6.7E-01  ok|
 | P-Mass               | 1.03 | 2.4E-05 | 1.0E-04 |  4.9  7.8E-02  OK|
 +----------------------+------+---------+---------+------------------+
 | H-Energy             | 0.94 | 2.2E-03 | 1.3E-02 |  5.8  7.8E-04  OK|
 +----------------------+------+---------+---------+------------------+
 | K-TurbKE             | 0.96 | 1.9E-03 | 9.1E-03 |  5.8  9.9E-04  OK|
 | E-Diss.K             | 0.98 | 7.8E-03 | 5.2E-02 |  7.4  1.5E-04  OK|
 +----------------------+------+---------+---------+------------------+

 ======================================================================
 OUTER LOOP ITERATION =   29                    CPU SECONDS = 8.120E+02
 ----------------------------------------------------------------------
 |       Equation       | Rate | RMS Res | Max Res |  Linear Solution |
 +----------------------+------+---------+---------+------------------+
 | U-Mom                | 0.96 | 1.1E-03 | 2.0E-03 |       6.3E-03  OK|
 | V-Mom                | 0.99 | 1.3E-05 | 7.9E-05 |       6.8E-01  ok|
 | W-Mom                | 0.99 | 1.3E-05 | 9.0E-05 |       7.0E-01  ok|
 | P-Mass               | 1.03 | 2.5E-05 | 9.6E-05 |  4.9  8.3E-02  OK|
 +----------------------+------+---------+---------+------------------+
 | H-Energy             | 0.97 | 2.2E-03 | 1.3E-02 |  5.8  8.6E-04  OK|
 +----------------------+------+---------+---------+------------------+
 | K-TurbKE             | 0.97 | 1.9E-03 | 8.9E-03 |  5.8  9.8E-04  OK|
 | E-Diss.K             | 0.98 | 7.7E-03 | 5.1E-02 |  7.4  1.5E-04  OK|
 +----------------------+------+---------+---------+------------------+

 ======================================================================
 OUTER LOOP ITERATION =   30                    CPU SECONDS = 8.401E+02
 ----------------------------------------------------------------------
 |       Equation       | Rate | RMS Res | Max Res |  Linear Solution |
 +----------------------+------+---------+---------+------------------+
 | U-Mom                | 0.96 | 1.0E-03 | 1.9E-03 |       6.5E-03  OK|
 | V-Mom                | 0.99 | 1.3E-05 | 7.2E-05 |       7.1E-01  ok|
 | W-Mom                | 0.99 | 1.3E-05 | 7.3E-05 |       7.3E-01  ok|
 | P-Mass               | 1.03 | 2.5E-05 | 9.8E-05 |  4.9  8.8E-02  OK|
 +----------------------+------+---------+---------+------------------+
 | H-Energy             | 0.95 | 2.1E-03 | 1.2E-02 |  5.8  9.1E-04  OK|
 +----------------------+------+---------+---------+------------------+
 | K-TurbKE             | 0.97 | 1.8E-03 | 8.7E-03 |  5.8  9.4E-04  OK|
 | E-Diss.K             | 0.98 | 7.5E-03 | 5.0E-02 |  7.4  1.6E-04  OK|
 +----------------------+------+---------+---------+------------------+

 ======================================================================
 |                        Timescale Information                       |
 ----------------------------------------------------------------------
 |       Equation       |         Type          |      Timescale      |
 +----------------------+-----------------------+---------------------+
 | U-Mom                | Auto Timescale        |     2.05627E-04     |
 | V-Mom                | Auto Timescale        |     2.05627E-04     |
 | W-Mom                | Auto Timescale        |     2.05627E-04     |
 | P-Mass               | Auto Timescale        |     2.05627E-04     |
 +----------------------+-----------------------+---------------------+
 | H-Energy             | Auto Timescale        |     2.05627E-04     |
 +----------------------+-----------------------+---------------------+
 | K-TurbKE             | Auto Timescale        |     2.05627E-04     |
 | E-Diss.K             | Auto Timescale        |     2.05627E-04     |
 +----------------------+-----------------------+---------------------+

 ======================================================================
 OUTER LOOP ITERATION =   31                    CPU SECONDS = 8.679E+02
 ----------------------------------------------------------------------
 |       Equation       | Rate | RMS Res | Max Res |  Linear Solution |
 +----------------------+------+---------+---------+------------------+
 | U-Mom                | 0.96 | 1.0E-03 | 1.8E-03 |       6.8E-03  OK|
 | V-Mom                | 0.99 | 1.2E-05 | 6.8E-05 |       7.4E-01  ok|
 | W-Mom                | 0.99 | 1.3E-05 | 7.2E-05 |       7.6E-01  ok|
 | P-Mass               | 1.02 | 2.6E-05 | 1.0E-04 |  4.9  9.4E-02  OK|
 +----------------------+------+---------+---------+------------------+
 | H-Energy             | 0.96 | 2.0E-03 | 1.2E-02 |  5.8  9.3E-04  OK|
 +----------------------+------+---------+---------+------------------+
 | K-TurbKE             | 0.98 | 1.8E-03 | 8.6E-03 |  5.8  8.9E-04  OK|
 | E-Diss.K             | 0.98 | 7.4E-03 | 5.0E-02 |  7.4  1.6E-04  OK|
 +----------------------+------+---------+---------+------------------+

 ======================================================================
 OUTER LOOP ITERATION =   32                    CPU SECONDS = 8.957E+02
 ----------------------------------------------------------------------
 |       Equation       | Rate | RMS Res | Max Res |  Linear Solution |
 +----------------------+------+---------+---------+------------------+
 | U-Mom                | 0.96 | 9.6E-04 | 1.7E-03 |       7.1E-03  OK|
 | V-Mom                | 0.99 | 1.2E-05 | 6.9E-05 |       7.7E-01  ok|
 | W-Mom                | 0.99 | 1.3E-05 | 7.3E-05 |       7.9E-01  ok|
 | P-Mass               | 1.02 | 2.6E-05 | 1.0E-04 |  4.9  1.0E-01  OK|
 +----------------------+------+---------+---------+------------------+
 | H-Energy             | 0.96 | 1.9E-03 | 1.2E-02 |  5.8  8.8E-04  OK|
 +----------------------+------+---------+---------+------------------+
 | K-TurbKE             | 0.98 | 1.7E-03 | 8.5E-03 |  5.8  8.4E-04  OK|
 | E-Diss.K             | 0.98 | 7.2E-03 | 4.9E-02 |  7.4  1.6E-04  OK|
 +----------------------+------+---------+---------+------------------+

 ======================================================================
 OUTER LOOP ITERATION =   33                    CPU SECONDS = 9.237E+02
 ----------------------------------------------------------------------
 |       Equation       | Rate | RMS Res | Max Res |  Linear Solution |
 +----------------------+------+---------+---------+------------------+
 | U-Mom                | 0.96 | 9.3E-04 | 1.6E-03 |       9.0E-04  OK|
 | V-Mom                | 0.99 | 1.2E-05 | 7.0E-05 |       1.4E-01  ok|
 | W-Mom                | 0.99 | 1.2E-05 | 7.3E-05 |       1.4E-01  ok|
 | P-Mass               | 1.02 | 2.7E-05 | 1.1E-04 |  8.8  1.3E-02  OK|
 +----------------------+------+---------+---------+------------------+
 | H-Energy             | 0.96 | 1.8E-03 | 1.2E-02 |  5.8  7.7E-04  OK|
 +----------------------+------+---------+---------+------------------+
 | K-TurbKE             | 0.99 | 1.7E-03 | 8.3E-03 |  5.8  7.8E-04  OK|
 | E-Diss.K             | 0.98 | 7.1E-03 | 4.8E-02 |  7.4  1.5E-04  OK|
 +----------------------+------+---------+---------+------------------+

 ======================================================================
 OUTER LOOP ITERATION =   34                    CPU SECONDS = 9.529E+02
 ----------------------------------------------------------------------
 |       Equation       | Rate | RMS Res | Max Res |  Linear Solution |
 +----------------------+------+---------+---------+------------------+
 | U-Mom                | 0.96 | 8.9E-04 | 1.6E-03 |       9.2E-04  OK|
 | V-Mom                | 0.71 | 8.7E-06 | 5.6E-05 |       2.1E-01  ok|
 | W-Mom                | 0.72 | 8.9E-06 | 6.4E-05 |       2.0E-01  ok|
 | P-Mass               | 1.00 | 2.7E-05 | 1.1E-04 |  8.8  1.4E-02  OK|
 +----------------------+------+---------+---------+------------------+
 | H-Energy             | 0.96 | 1.8E-03 | 9.0E-03 |  5.8  6.3E-04  OK|
 +----------------------+------+---------+---------+------------------+
 | K-TurbKE             | 0.99 | 1.7E-03 | 8.1E-03 |  5.8  7.5E-04  OK|
 | E-Diss.K             | 0.98 | 7.0E-03 | 4.8E-02 |  7.4  1.5E-04  OK|
 +----------------------+------+---------+---------+------------------+

 ======================================================================
 OUTER LOOP ITERATION =   35                    CPU SECONDS = 9.817E+02
 ----------------------------------------------------------------------
 |       Equation       | Rate | RMS Res | Max Res |  Linear Solution |
 +----------------------+------+---------+---------+------------------+
 | U-Mom                | 0.96 | 8.6E-04 | 1.5E-03 |       9.5E-04  OK|
 | V-Mom                | 0.80 | 6.9E-06 | 4.5E-05 |       2.5E-01  ok|
 | W-Mom                | 0.79 | 7.1E-06 | 5.6E-05 |       2.4E-01  ok|
 | P-Mass               | 1.01 | 2.7E-05 | 1.0E-04 |  8.8  1.4E-02  OK|
 +----------------------+------+---------+---------+------------------+
 | H-Energy             | 0.96 | 1.7E-03 | 7.2E-03 |  5.8  5.1E-04  OK|
 +----------------------+------+---------+---------+------------------+
 | K-TurbKE             | 0.99 | 1.7E-03 | 7.9E-03 |  5.8  7.4E-04  OK|
 | E-Diss.K             | 0.98 | 6.9E-03 | 4.7E-02 |  7.4  1.5E-04  OK|
 +----------------------+------+---------+---------+------------------+

 ======================================================================
 |                        Timescale Information                       |
 ----------------------------------------------------------------------
 |       Equation       |         Type          |      Timescale      |
 +----------------------+-----------------------+---------------------+
 | U-Mom                | Auto Timescale        |     2.06555E-04     |
 | V-Mom                | Auto Timescale        |     2.06555E-04     |
 | W-Mom                | Auto Timescale        |     2.06555E-04     |
 | P-Mass               | Auto Timescale        |     2.06555E-04     |
 +----------------------+-----------------------+---------------------+
 | H-Energy             | Auto Timescale        |     2.06555E-04     |
 +----------------------+-----------------------+---------------------+
 | K-TurbKE             | Auto Timescale        |     2.06555E-04     |
 | E-Diss.K             | Auto Timescale        |     2.06555E-04     |
 +----------------------+-----------------------+---------------------+

 ======================================================================
 OUTER LOOP ITERATION =   36                    CPU SECONDS = 1.011E+03
 ----------------------------------------------------------------------
 |       Equation       | Rate | RMS Res | Max Res |  Linear Solution |
 +----------------------+------+---------+---------+------------------+
 | U-Mom                | 0.96 | 8.3E-04 | 1.5E-03 |       9.9E-04  OK|
 | V-Mom                | 0.97 | 6.7E-06 | 4.6E-05 |       2.6E-01  ok|
 | W-Mom                | 0.96 | 6.8E-06 | 5.1E-05 |       2.5E-01  ok|
 | P-Mass               | 1.01 | 2.7E-05 | 1.1E-04 |  8.8  1.5E-02  OK|
 +----------------------+------+---------+---------+------------------+
 | H-Energy             | 0.96 | 1.6E-03 | 6.6E-03 |  5.8  4.3E-04  OK|
 +----------------------+------+---------+---------+------------------+
 | K-TurbKE             | 0.99 | 1.7E-03 | 7.8E-03 |  5.8  7.5E-04  OK|
 | E-Diss.K             | 0.99 | 6.8E-03 | 4.7E-02 |  7.4  1.6E-04  OK|
 +----------------------+------+---------+---------+------------------+

 ======================================================================
 OUTER LOOP ITERATION =   37                    CPU SECONDS = 1.039E+03
 ----------------------------------------------------------------------
 |       Equation       | Rate | RMS Res | Max Res |  Linear Solution |
 +----------------------+------+---------+---------+------------------+
 | U-Mom                | 0.96 | 7.9E-04 | 1.4E-03 |       1.0E-03  OK|
 | V-Mom                | 0.95 | 6.4E-06 | 4.8E-05 |       2.8E-01  ok|
 | W-Mom                | 0.95 | 6.5E-06 | 4.9E-05 |       2.7E-01  ok|
 | P-Mass               | 1.01 | 2.8E-05 | 1.1E-04 |  8.8  1.6E-02  OK|
 +----------------------+------+---------+---------+------------------+
 | H-Energy             | 0.96 | 1.5E-03 | 6.7E-03 |  5.8  4.0E-04  OK|
 +----------------------+------+---------+---------+------------------+
 | K-TurbKE             | 0.99 | 1.7E-03 | 7.7E-03 |  5.8  7.7E-04  OK|
 | E-Diss.K             | 0.98 | 6.7E-03 | 4.6E-02 |  7.4  1.6E-04  OK|
 +----------------------+------+---------+---------+------------------+

 ======================================================================
 OUTER LOOP ITERATION =   38                    CPU SECONDS = 1.069E+03
 ----------------------------------------------------------------------
 |       Equation       | Rate | RMS Res | Max Res |  Linear Solution |
 +----------------------+------+---------+---------+------------------+
 | U-Mom                | 0.96 | 7.7E-04 | 1.4E-03 |       1.1E-03  OK|
 | V-Mom                | 0.95 | 6.1E-06 | 5.0E-05 |       3.0E-01  ok|
 | W-Mom                | 0.95 | 6.1E-06 | 4.5E-05 |       3.0E-01  ok|
 | P-Mass               | 1.01 | 2.8E-05 | 1.1E-04 |  8.8  1.7E-02  OK|
 +----------------------+------+---------+---------+------------------+
 | H-Energy             | 0.96 | 1.5E-03 | 6.4E-03 |  5.8  4.1E-04  OK|
 +----------------------+------+---------+---------+------------------+
 | K-TurbKE             | 0.99 | 1.7E-03 | 7.6E-03 |  5.8  8.0E-04  OK|
 | E-Diss.K             | 0.98 | 6.6E-03 | 4.5E-02 |  7.4  1.7E-04  OK|
 +----------------------+------+---------+---------+------------------+

 ======================================================================
 OUTER LOOP ITERATION =   39                    CPU SECONDS = 1.097E+03
 ----------------------------------------------------------------------
 |       Equation       | Rate | RMS Res | Max Res |  Linear Solution |
 +----------------------+------+---------+---------+------------------+
 | U-Mom                | 0.96 | 7.4E-04 | 1.4E-03 |       1.1E-03  OK|
 | V-Mom                | 0.95 | 5.8E-06 | 5.2E-05 |       3.3E-01  ok|
 | W-Mom                | 0.95 | 5.8E-06 | 4.7E-05 |       3.2E-01  ok|
 | P-Mass               | 1.01 | 2.8E-05 | 1.1E-04 |  8.8  1.8E-02  OK|
 +----------------------+------+---------+---------+------------------+
 | H-Energy             | 0.96 | 1.4E-03 | 6.0E-03 |  5.8  4.4E-04  OK|
 +----------------------+------+---------+---------+------------------+
 | K-TurbKE             | 0.99 | 1.6E-03 | 7.5E-03 |  5.8  8.3E-04  OK|
 | E-Diss.K             | 0.98 | 6.5E-03 | 4.4E-02 |  7.4  1.8E-04  OK|
 +----------------------+------+---------+---------+------------------+

 ======================================================================
 OUTER LOOP ITERATION =   40                    CPU SECONDS = 1.126E+03
 ----------------------------------------------------------------------
 |       Equation       | Rate | RMS Res | Max Res |  Linear Solution |
 +----------------------+------+---------+---------+------------------+
 | U-Mom                | 0.96 | 7.1E-04 | 1.4E-03 |       1.2E-03  OK|
 | V-Mom                | 0.95 | 5.5E-06 | 5.4E-05 |       3.6E-01  ok|
 | W-Mom                | 0.95 | 5.6E-06 | 4.9E-05 |       3.5E-01  ok|
 | P-Mass               | 1.01 | 2.9E-05 | 1.2E-04 |  8.8  1.9E-02  OK|
 +----------------------+------+---------+---------+------------------+
 | H-Energy             | 0.96 | 1.4E-03 | 5.5E-03 |  5.8  4.9E-04  OK|
 +----------------------+------+---------+---------+------------------+
 | K-TurbKE             | 0.99 | 1.6E-03 | 7.4E-03 |  5.8  8.8E-04  OK|
 | E-Diss.K             | 0.98 | 6.3E-03 | 4.4E-02 |  7.4  1.9E-04  OK|
 +----------------------+------+---------+---------+------------------+

 ======================================================================
 |                        Timescale Information                       |
 ----------------------------------------------------------------------
 |       Equation       |         Type          |      Timescale      |
 +----------------------+-----------------------+---------------------+
 | U-Mom                | Auto Timescale        |     2.07541E-04     |
 | V-Mom                | Auto Timescale        |     2.07541E-04     |
 | W-Mom                | Auto Timescale        |     2.07541E-04     |
 | P-Mass               | Auto Timescale        |     2.07541E-04     |
 +----------------------+-----------------------+---------------------+
 | H-Energy             | Auto Timescale        |     2.07541E-04     |
 +----------------------+-----------------------+---------------------+
 | K-TurbKE             | Auto Timescale        |     2.07541E-04     |
 | E-Diss.K             | Auto Timescale        |     2.07541E-04     |
 +----------------------+-----------------------+---------------------+

 ======================================================================
 OUTER LOOP ITERATION =   41                    CPU SECONDS = 1.155E+03
 ----------------------------------------------------------------------
 |       Equation       | Rate | RMS Res | Max Res |  Linear Solution |
 +----------------------+------+---------+---------+------------------+
 | U-Mom                | 0.96 | 6.8E-04 | 1.4E-03 |       1.2E-03  OK|
 | V-Mom                | 0.96 | 5.3E-06 | 5.6E-05 |       3.9E-01  ok|
 | W-Mom                | 0.96 | 5.3E-06 | 5.1E-05 |       3.8E-01  ok|
 | P-Mass               | 1.01 | 2.9E-05 | 1.2E-04 |  8.8  2.0E-02  OK|
 +----------------------+------+---------+---------+------------------+
 | H-Energy             | 0.96 | 1.3E-03 | 5.4E-03 |  5.8  5.7E-04  OK|
 +----------------------+------+---------+---------+------------------+
 | K-TurbKE             | 0.99 | 1.6E-03 | 7.3E-03 |  5.8  9.3E-04  OK|
 | E-Diss.K             | 0.98 | 6.2E-03 | 4.3E-02 |  7.4  2.0E-04  OK|
 +----------------------+------+---------+---------+------------------+

 ======================================================================
 OUTER LOOP ITERATION =   42                    CPU SECONDS = 1.184E+03
 ----------------------------------------------------------------------
 |       Equation       | Rate | RMS Res | Max Res |  Linear Solution |
 +----------------------+------+---------+---------+------------------+
 | U-Mom                | 0.96 | 6.6E-04 | 1.3E-03 |       1.3E-03  OK|
 | V-Mom                | 0.96 | 5.1E-06 | 5.8E-05 |       4.1E-01  ok|
 | W-Mom                | 0.96 | 5.1E-06 | 5.3E-05 |       4.1E-01  ok|
 | P-Mass               | 1.01 | 2.9E-05 | 1.2E-04 |  8.8  2.1E-02  OK|
 +----------------------+------+---------+---------+------------------+
 | H-Energy             | 0.96 | 1.2E-03 | 5.2E-03 |  5.8  6.6E-04  OK|
 +----------------------+------+---------+---------+------------------+
 | K-TurbKE             | 0.99 | 1.6E-03 | 7.3E-03 |  5.8  9.8E-04  OK|
 | E-Diss.K             | 0.98 | 6.1E-03 | 4.3E-02 |  7.4  2.1E-04  OK|
 +----------------------+------+---------+---------+------------------+

 ======================================================================
 OUTER LOOP ITERATION =   43                    CPU SECONDS = 1.213E+03
 ----------------------------------------------------------------------
 |       Equation       | Rate | RMS Res | Max Res |  Linear Solution |
 +----------------------+------+---------+---------+------------------+
 | U-Mom                | 0.96 | 6.3E-04 | 1.3E-03 |       1.3E-03  OK|
 | V-Mom                | 0.97 | 4.9E-06 | 6.0E-05 |       4.4E-01  ok|
 | W-Mom                | 0.97 | 4.9E-06 | 5.4E-05 |       4.3E-01  ok|
 | P-Mass               | 1.02 | 3.0E-05 | 1.3E-04 |  8.8  2.2E-02  OK|
 +----------------------+------+---------+---------+------------------+
 | H-Energy             | 0.96 | 1.2E-03 | 5.1E-03 |  5.8  7.7E-04  OK|
 +----------------------+------+---------+---------+------------------+
 | K-TurbKE             | 0.99 | 1.6E-03 | 7.2E-03 |  5.8  1.0E-03  OK|
 | E-Diss.K             | 0.98 | 6.0E-03 | 4.2E-02 |  7.4  2.2E-04  OK|
 +----------------------+------+---------+---------+------------------+

 ======================================================================
 OUTER LOOP ITERATION =   44                    CPU SECONDS = 1.242E+03
 ----------------------------------------------------------------------
 |       Equation       | Rate | RMS Res | Max Res |  Linear Solution |
 +----------------------+------+---------+---------+------------------+
 | U-Mom                | 0.96 | 6.1E-04 | 1.3E-03 |       1.4E-03  OK|
 | V-Mom                | 0.97 | 4.8E-06 | 6.3E-05 |       4.6E-01  ok|
 | W-Mom                | 0.97 | 4.8E-06 | 5.7E-05 |       4.6E-01  ok|
 | P-Mass               | 1.02 | 3.0E-05 | 1.3E-04 |  8.8  2.3E-02  OK|
 +----------------------+------+---------+---------+------------------+
 | H-Energy             | 0.96 | 1.2E-03 | 5.1E-03 |  5.8  9.0E-04  OK|
 +----------------------+------+---------+---------+------------------+
 | K-TurbKE             | 0.99 | 1.5E-03 | 7.1E-03 |  5.8  1.1E-03  OK|
 | E-Diss.K             | 0.98 | 5.9E-03 | 4.2E-02 |  7.4  2.3E-04  OK|
 +----------------------+------+---------+---------+------------------+

 ======================================================================
 OUTER LOOP ITERATION =   45                    CPU SECONDS = 1.271E+03
 ----------------------------------------------------------------------
 |       Equation       | Rate | RMS Res | Max Res |  Linear Solution |
 +----------------------+------+---------+---------+------------------+
 | U-Mom                | 0.96 | 5.9E-04 | 1.3E-03 |       1.4E-03  OK|
 | V-Mom                | 0.98 | 4.7E-06 | 6.5E-05 |       4.9E-01  ok|
 | W-Mom                | 0.98 | 4.7E-06 | 5.9E-05 |       4.9E-01  ok|
 | P-Mass               | 1.02 | 3.1E-05 | 1.4E-04 |  8.8  2.4E-02  OK|
 +----------------------+------+---------+---------+------------------+
 | H-Energy             | 0.96 | 1.1E-03 | 5.0E-03 |  5.8  1.0E-03  OK|
 +----------------------+------+---------+---------+------------------+
 | K-TurbKE             | 0.99 | 1.5E-03 | 7.1E-03 |  5.8  1.1E-03  OK|
 | E-Diss.K             | 0.98 | 5.8E-03 | 4.2E-02 |  7.4  2.5E-04  OK|
 +----------------------+------+---------+---------+------------------+

 ======================================================================
 |                        Timescale Information                       |
 ----------------------------------------------------------------------
 |       Equation       |         Type          |      Timescale      |
 +----------------------+-----------------------+---------------------+
 | U-Mom                | Auto Timescale        |     2.08572E-04     |
 | V-Mom                | Auto Timescale        |     2.08572E-04     |
 | W-Mom                | Auto Timescale        |     2.08572E-04     |
 | P-Mass               | Auto Timescale        |     2.08572E-04     |
 +----------------------+-----------------------+---------------------+
 | H-Energy             | Auto Timescale        |     2.08572E-04     |
 +----------------------+-----------------------+---------------------+
 | K-TurbKE             | Auto Timescale        |     2.08572E-04     |
 | E-Diss.K             | Auto Timescale        |     2.08572E-04     |
 +----------------------+-----------------------+---------------------+

 ======================================================================
 OUTER LOOP ITERATION =   46                    CPU SECONDS = 1.300E+03
 ----------------------------------------------------------------------
 |       Equation       | Rate | RMS Res | Max Res |  Linear Solution |
 +----------------------+------+---------+---------+------------------+
 | U-Mom                | 0.96 | 5.7E-04 | 1.4E-03 |       1.5E-03  OK|
 | V-Mom                | 0.98 | 4.6E-06 | 6.7E-05 |       5.1E-01  ok|
 | W-Mom                | 0.98 | 4.6E-06 | 6.1E-05 |       5.2E-01  ok|
 | P-Mass               | 1.02 | 3.1E-05 | 1.4E-04 |  8.8  2.5E-02  OK|
 +----------------------+------+---------+---------+------------------+
 | H-Energy             | 0.96 | 1.1E-03 | 5.1E-03 |  5.8  1.2E-03  OK|
 +----------------------+------+---------+---------+------------------+
 | K-TurbKE             | 0.99 | 1.5E-03 | 7.1E-03 |  5.8  1.2E-03  OK|
 | E-Diss.K             | 0.99 | 5.7E-03 | 4.2E-02 |  7.4  2.6E-04  OK|
 +----------------------+------+---------+---------+------------------+

 ======================================================================
 OUTER LOOP ITERATION =   47                    CPU SECONDS = 1.329E+03
 ----------------------------------------------------------------------
 |       Equation       | Rate | RMS Res | Max Res |  Linear Solution |
 +----------------------+------+---------+---------+------------------+
 | U-Mom                | 0.97 | 5.5E-04 | 1.4E-03 |       1.6E-03  OK|
 | V-Mom                | 0.99 | 4.5E-06 | 6.9E-05 |       5.3E-01  ok|
 | W-Mom                | 0.99 | 4.5E-06 | 6.4E-05 |       5.4E-01  ok|
 | P-Mass               | 1.02 | 3.2E-05 | 1.5E-04 |  8.8  2.6E-02  OK|
 +----------------------+------+---------+---------+------------------+
 | H-Energy             | 0.96 | 1.0E-03 | 5.1E-03 |  5.8  1.4E-03  OK|
 +----------------------+------+---------+---------+------------------+
 | K-TurbKE             | 0.99 | 1.5E-03 | 7.1E-03 |  5.8  1.2E-03  OK|
 | E-Diss.K             | 0.98 | 5.6E-03 | 4.2E-02 |  7.4  2.7E-04  OK|
 +----------------------+------+---------+---------+------------------+

 ======================================================================
 OUTER LOOP ITERATION =   48                    CPU SECONDS = 1.358E+03
 ----------------------------------------------------------------------
 |       Equation       | Rate | RMS Res | Max Res |  Linear Solution |
 +----------------------+------+---------+---------+------------------+
 | U-Mom                | 0.97 | 5.3E-04 | 1.4E-03 |       1.7E-03  OK|
 | V-Mom                | 0.99 | 4.5E-06 | 7.1E-05 |       5.5E-01  ok|
 | W-Mom                | 0.99 | 4.5E-06 | 6.6E-05 |       5.6E-01  ok|
 | P-Mass               | 1.02 | 3.2E-05 | 1.6E-04 |  8.8  2.7E-02  OK|
 +----------------------+------+---------+---------+------------------+
 | H-Energy             | 0.96 | 9.9E-04 | 4.9E-03 |  5.8  1.5E-03  OK|
 +----------------------+------+---------+---------+------------------+
 | K-TurbKE             | 0.99 | 1.5E-03 | 7.4E-03 |  5.8  1.3E-03  OK|
 | E-Diss.K             | 0.98 | 5.5E-03 | 4.3E-02 |  7.4  2.8E-04  OK|
 +----------------------+------+---------+---------+------------------+

 ======================================================================
 OUTER LOOP ITERATION =   49                    CPU SECONDS = 1.387E+03
 ----------------------------------------------------------------------
[...]
 | E-Diss.K             | 0.97 | 1.5E-04 | 3.9E-03 |  7.4  6.7E-04  OK|
 +----------------------+------+---------+---------+------------------+

 ======================================================================
 OUTER LOOP ITERATION =  139                    CPU SECONDS = 3.978E+03
 ----------------------------------------------------------------------
 |       Equation       | Rate | RMS Res | Max Res |  Linear Solution |
 +----------------------+------+---------+---------+------------------+
 | U-Mom                | 0.97 | 9.0E-05 | 3.2E-03 |       7.1E-03  OK|
 | V-Mom                | 1.03 | 3.2E-05 | 1.3E-03 |       1.6E-02  OK|
 | W-Mom                | 1.01 | 3.2E-05 | 1.2E-03 |       2.1E-02  OK|
 | P-Mass               | 1.04 | 2.0E-05 | 6.7E-04 |  8.8  2.8E-02  OK|
 +----------------------+------+---------+---------+------------------+
 | H-Energy             | 0.97 | 1.1E-04 | 8.7E-03 |  5.8  2.5E-03  OK|
 +----------------------+------+---------+---------+------------------+
 | K-TurbKE             | 0.98 | 6.6E-05 | 1.6E-03 |  5.8  2.8E-03  OK|
 | E-Diss.K             | 0.98 | 1.5E-04 | 3.8E-03 |  7.4  6.7E-04  OK|
 +----------------------+------+---------+---------+------------------+

 ======================================================================
 OUTER LOOP ITERATION =  140                    CPU SECONDS = 4.007E+03
 ----------------------------------------------------------------------
 |       Equation       | Rate | RMS Res | Max Res |  Linear Solution |
 +----------------------+------+---------+---------+------------------+
 | U-Mom                | 1.00 | 9.0E-05 | 3.0E-03 |       7.2E-03  OK|
 | V-Mom                | 1.03 | 3.3E-05 | 1.5E-03 |       1.5E-02  OK|
 | W-Mom                | 1.03 | 3.3E-05 | 1.2E-03 |       2.1E-02  OK|
 | P-Mass               | 1.03 | 2.1E-05 | 5.7E-04 |  8.8  2.7E-02  OK|
 +----------------------+------+---------+---------+------------------+
 | H-Energy             | 0.95 | 1.0E-04 | 8.8E-03 |  5.8  2.3E-03  OK|
 +----------------------+------+---------+---------+------------------+
 | K-TurbKE             | 0.99 | 6.5E-05 | 1.6E-03 |  5.8  2.6E-03  OK|
 | E-Diss.K             | 0.98 | 1.4E-04 | 3.8E-03 |  7.4  6.5E-04  OK|
 +----------------------+------+---------+---------+------------------+

 ======================================================================
 |                        Timescale Information                       |
 ----------------------------------------------------------------------
 |       Equation       |         Type          |      Timescale      |
 +----------------------+-----------------------+---------------------+
 | U-Mom                | Auto Timescale        |     2.16235E-04     |
 | V-Mom                | Auto Timescale        |     2.16235E-04     |
 | W-Mom                | Auto Timescale        |     2.16235E-04     |
 | P-Mass               | Auto Timescale        |     2.16235E-04     |
 +----------------------+-----------------------+---------------------+
 | H-Energy             | Auto Timescale        |     2.16235E-04     |
 +----------------------+-----------------------+---------------------+
 | K-TurbKE             | Auto Timescale        |     2.16235E-04     |
 | E-Diss.K             | Auto Timescale        |     2.16235E-04     |
 +----------------------+-----------------------+---------------------+

 ======================================================================
 OUTER LOOP ITERATION =  141                    CPU SECONDS = 4.036E+03
 ----------------------------------------------------------------------
 |       Equation       | Rate | RMS Res | Max Res |  Linear Solution |
 +----------------------+------+---------+---------+------------------+
 | U-Mom                | 1.01 | 9.0E-05 | 2.8E-03 |       7.6E-03  OK|
 | V-Mom                | 1.04 | 3.4E-05 | 1.7E-03 |       1.5E-02  OK|
 | W-Mom                | 1.02 | 3.3E-05 | 1.5E-03 |       2.1E-02  OK|
 | P-Mass               | 1.04 | 2.1E-05 | 5.6E-04 |  8.8  2.7E-02  OK|
 +----------------------+------+---------+---------+------------------+
 | H-Energy             | 0.95 | 9.8E-05 | 8.5E-03 |  5.8  2.2E-03  OK|
 +----------------------+------+---------+---------+------------------+
 | K-TurbKE             | 1.00 | 6.5E-05 | 1.6E-03 |  5.8  2.4E-03  OK|
 | E-Diss.K             | 0.99 | 1.4E-04 | 3.8E-03 |  7.4  6.4E-04  OK|
 +----------------------+------+---------+---------+------------------+
                   
 CFD Solver finished: Mon May 03 18:51:55 2021
 CFD Solver wall clock seconds: 4.0527E+03

 ======================================================================
              Termination and Interrupt Condition Summary
 ======================================================================
    
 CFD Solver: All target criteria reached
   (Equation residuals)

 ======================================================================
              Boundary Flow and Total Source Term Summary
 ======================================================================

 +--------------------------------------------------------------------+
 |                               U-Mom                                |
 +--------------------------------------------------------------------+
 Boundary         : Inlet                                   1.5107E+04
 Boundary         : Outlet                                 -4.5741E+03
 Boundary         : Wall                                   -1.0522E+04
 Domain Interface : Default Fluid Fluid Interface (Side 1) -1.3322E+02
 Domain Interface : Default Fluid Fluid Interface (Side 2)  1.3322E+02
                                                           -----------
 Domain Imbalance :                                         1.1274E+01

 +--------------------------------------------------------------------+
 |                               V-Mom                                |
 +--------------------------------------------------------------------+
 Boundary         : Inlet                                  -8.0117E-11
 Boundary         : Outlet                                 -6.8673E-03
 Boundary         : Wall                                    3.1960E-03
 Domain Interface : Default Fluid Fluid Interface (Side 1)  3.4313E+04
 Domain Interface : Default Fluid Fluid Interface (Side 2) -3.4313E+04
                                                           -----------
 Domain Imbalance :                                        -3.6712E-03

 +--------------------------------------------------------------------+
 |                               W-Mom                                |
 +--------------------------------------------------------------------+
 Boundary         : Inlet                                   1.1276E-09
 Boundary         : Outlet                                 -9.3515E-03
 Boundary         : Wall                                    4.1311E-03
 Domain Interface : Default Fluid Fluid Interface (Side 1) -1.0091E+05
 Domain Interface : Default Fluid Fluid Interface (Side 2)  1.0091E+05
                                                           -----------
 Domain Imbalance :                                        -5.2205E-03

 +--------------------------------------------------------------------+
 |                               P-Mass                               |
 +--------------------------------------------------------------------+
 Boundary         : Inlet                                   7.3329E+00
 Boundary         : Outlet                                 -7.2620E+00
 Domain Interface : Default Fluid Fluid Interface (Side 1) -6.9532E-01
 Domain Interface : Default Fluid Fluid Interface (Side 2)  6.9532E-01
                                                           -----------
 Domain Imbalance :                                         7.0940E-02

 +--------------------------------------------------------------------+
 |                              H-Energy                              |
 +--------------------------------------------------------------------+
 Bnd Src/Visc Work: Default Fluid Fluid Interface Side 1    4.0523E+02
 Bnd Src/Visc Work: Default Fluid Fluid Interface Side 2   -6.1164E+01
 Boundary         : Inlet                                   8.7278E+04
 Bnd Src/Visc Work: Inlet                                  -9.4758E-04
 Boundary         : Outlet                                 -8.6801E+04
 Bnd Src/Visc Work: Outlet                                 -4.4735E-03
 Domain Src (Neg) : Default Domain                         -1.8091E+05
 Domain Src (Pos) : Default Domain                          1.8091E+05
 Domain Interface : Default Fluid Fluid Interface (Side 1) -1.5718E+04
 Domain Interface : Default Fluid Fluid Interface (Side 2)  1.5718E+04
                                                           -----------
 Domain Imbalance :                                         8.2060E+02


 +--------------------------------------------------------------------+
 |                     Normalised Imbalance Summary                   |
 +--------------------------------------------------------------------+
 |       Equation       |      Maximum Flow     |     Imbalance (%)   |
 +--------------------------------------------------------------------+
 | U-Mom                |       1.0091E+05      |        0.0112       |
 | V-Mom                |       1.0091E+05      |       -0.0000       |
 | W-Mom                |       1.0091E+05      |       -0.0000       |
 | P-Mass               |       7.3329E+00      |        0.9674       |
 +----------------------+-----------------------+---------------------+
 | H-Energy             |       1.8091E+05      |        0.4536       |
 +----------------------+-----------------------+---------------------+

 ======================================================================
                     Wall Force and Moment Summary
 ======================================================================
                                                                          
 Notes:
 1. Pressure integrals exclude the reference pressure.  To include
    it, set the expert parameter 'include pref in forces = t'.


 +--------------------------------------------------------------------+
 |                      Pressure Force On Walls                       |
 +--------------------------------------------------------------------+
                                    X-Comp.      Y-Comp.      Z-Comp.

 Domain Group: Default Domain

 Wall                             1.0309E+04  -3.2567E-03  -4.6243E-03
                                  -----------  -----------  -----------
 Domain Group Totals :            1.0309E+04  -3.2567E-03  -4.6243E-03


 +--------------------------------------------------------------------+
 |                       Viscous Force On Walls                       |
 +--------------------------------------------------------------------+
                                    X-Comp.      Y-Comp.      Z-Comp.

 Domain Group: Default Domain

 Wall                             2.1249E+02   6.0700E-05   4.9324E-04
                                  -----------  -----------  -----------
 Domain Group Totals :            2.1249E+02   6.0700E-05   4.9324E-04


 +--------------------------------------------------------------------+
 |                      Pressure Moment On Walls                      |
 +--------------------------------------------------------------------+
                                    X-Comp.      Y-Comp.      Z-Comp.

 Domain Group: Default Domain

 Wall                            -1.8139E-05   9.0353E-03  -7.1481E-03
                                  -----------  -----------  -----------
 Domain Group Totals :           -1.8139E-05   9.0353E-03  -7.1481E-03


 +--------------------------------------------------------------------+
 |                       Viscous Moment On Walls                      |
 +--------------------------------------------------------------------+
                                    X-Comp.      Y-Comp.      Z-Comp.

 Domain Group: Default Domain

 Wall                             1.1409E-04  -6.3667E-04   2.3038E-04
                                  -----------  -----------  -----------
 Domain Group Totals :            1.1409E-04  -6.3667E-04   2.3038E-04


 +--------------------------------------------------------------------+
 |                   Locations of Maximum Residuals                   |
 +--------------------------------------------------------------------+
 |       Equation       |      Domain Name      |     Node Number     |
 +--------------------------------------------------------------------+
 | U-Mom                | Default Domain        |          30829      |
 | V-Mom                | Default Domain        |            246      |
 | W-Mom                | Default Domain        |          16206      |
 | P-Mass               | Default Domain        |         104366      |
 +----------------------+-----------------------+---------------------+
 | H-Energy             | Default Domain        |          90191      |
 +----------------------+-----------------------+---------------------+
 | K-TurbKE             | Default Domain        |          89489      |
 | E-Diss.K             | Default Domain        |          89489      |
 +----------------------+-----------------------+---------------------+

 ======================================================================
 |                     False Transient Information                    |
 +--------------------------------------------------------------------+
 |       Equation       |         Type          | Elapsed Pseudo-Time |
 +--------------------------------------------------------------------+
 | U-Mom                | Auto Timescale        |     3.65079E-02     |
 | V-Mom                | Auto Timescale        |     3.65079E-02     |
 | W-Mom                | Auto Timescale        |     3.65079E-02     |
 | P-Mass               | Auto Timescale        |     3.65079E-02     |
 +----------------------+-----------------------+---------------------+
 | H-Energy             | Auto Timescale        |     3.65079E-02     |
 +----------------------+-----------------------+---------------------+
 | K-TurbKE             | Auto Timescale        |     3.65079E-02     |
 | E-Diss.K             | Auto Timescale        |     3.65079E-02     |
 +----------------------+-----------------------+---------------------+

 +--------------------------------------------------------------------+
 |                     Average Scale Information                      |
 +--------------------------------------------------------------------+

 Domain Name : Default Domain
     Global Length                                         = 2.0901E-01
     Minimum Extent                                        = 1.2620E-01
     Maximum Extent                                        = 2.0000E+00
     Density                                               = 1.0060E+01
     Dynamic Viscosity                                     = 1.8310E-05
     Velocity                                              = 2.8045E+02
     Advection Time                                        = 7.4527E-04
     Reynolds Number                                       = 3.2205E+07
     Speed of Sound                                        = 3.2638E+02
     Mach Number                                           = 8.5928E-01
     Thermal Conductivity                                  = 2.6100E-02
     Specific Heat Capacity at Constant Pressure           = 1.0044E+03
     Specific Heat Capacity at Constant Volume             = 7.1730E+02
     Specific Heat Ratio                                   = 1.4003E+00
     Prandtl Number                                        = 7.0462E-01
     Temperature Range                                     = 1.2300E+02

 +--------------------------------------------------------------------+
 |                     Variable Range Information                     |
 +--------------------------------------------------------------------+

 Domain Name : Default Domain
 +--------------------------------------------------------------------+
 |      Variable Name                         |    min    |    max    |
 +--------------------------------------------------------------------+
 | Density                                    |  3.26E+00 |  1.46E+01 |
 | Specific Heat Capacity at Constant Pressure|  1.00E+03 |  1.00E+03 |
 | Dynamic Viscosity                          |  1.83E-05 |  1.83E-05 |
 | Thermal Conductivity                       |  2.61E-02 |  2.61E-02 |
 | Isothermal Compressibility                 |  7.74E-07 |  4.59E-06 |
 | Static Entropy                             | -6.95E+02 | -4.15E+02 |
 | Velocity u                                 | -1.95E+01 |  4.99E+02 |
 | Velocity v                                 | -7.97E+01 |  7.97E+01 |
 | Velocity w                                 | -8.01E+01 |  8.01E+01 |
 | Pressure                                   |  1.17E+05 |  1.19E+06 |
 | Turbulence Kinetic Energy                  |  9.82E-04 |  3.34E+03 |
 | Turbulence Eddy Dissipation                |  1.04E-01 |  2.22E+07 |
 | Eddy Viscosity                             |  4.04E-07 |  7.01E-01 |
 | Temperature                                |  1.86E+02 |  3.09E+02 |
 | Static Enthalpy                            | -1.12E+05 |  1.11E+04 |
 | Total Enthalpy                             |  8.89E+03 |  1.44E+04 |
 +--------------------------------------------------------------------+

 +--------------------------------------------------------------------+
 |               CPU Requirements of Numerical Solution               |
 +--------------------------------------------------------------------+

 Subsystem Name                  Discretization       Linear Solution
                                (secs.   %total)     (secs.   %total) 
 ----------------------------------------------------------------------
 Momentum and Mass              2.04E+03  50.0 %     3.51E+02   8.6 %
 Heat Transfer                  6.12E+02  15.0 %     7.83E+01   1.9 %
 TurbKE and Diss.K              5.72E+02  14.0 %     1.80E+02   4.4 %
                                -------- -------     --------  ------
 Subsystem Summary              3.22E+03  78.9 %     6.10E+02  14.9 %

 Variable Updates               2.15E+02    5.3 %
 GGI Intersection               4.05E+00    0.1 %
 Search Calculations            2.08E-03    0.0 %
 File Reading                   6.50E-02    0.0 %
 File Writing                   1.11E+01    0.3 %
 Miscellaneous                  1.97E+01    0.5 %
                                --------
 Total                          4.08E+03

 +--------------------------------------------------------------------+
 |                   Job Information at End of Run                    |
 +--------------------------------------------------------------------+

 Host computer:  DESKTOP-77TRS1E (PID:10064)

 Job finished:   Mon May 03 18:52:13 2021

 Total wall clock time: 4.083E+03 seconds
             or: (          0:         1:         8:     3.316 )
                 (       Days:     Hours:   Minutes:   Seconds )

End of solution stage.

 +--------------------------------------------------------------------+
 | The results from this run of the ANSYS CFX Solver have been        |
 | written to G:/Kuliah/Tugas/Semester 10/CFD 2/CD Duct/2D CD         |
 | duct_pending/dp0_CFX_1_Solution_3/CFX_002.res                      |
 +--------------------------------------------------------------------+


 +--------------------------------------------------------------------+
 | For CFX runs launched from Workbench, the final locations of       |
 | directories and files generated may differ from those shown.       |
 +--------------------------------------------------------------------+


This run of the ANSYS CFX Solver has finished.
