 This run of the CFX Release 16.0 Solver started at 15:10:16 on 03 May
 2021 by user user on DESKTOP-77TRS1E (amd_opteron.sse2_winnt) using the
 command:
 
  "C:\Program Files\ANSYS Inc\v160\CFX\bin\perllib\cfx5solve.pl" -batch
    -ccl runInput.ccl -fullname CFX_001
 
 Release 16.0
 
  Point Releases and Patches installed:
  ANSYS, Inc. Products Release 16.0
  ANSYS Mechanical Products Release 16.0
  ANSYS Autodyn Release 16.0
  ANSYS LS-DYNA Release 16.0
  ANSYS AIM Release 16.0
  ANSYS CFX (includes ANSYS CFD-Post) Release 16.0
  ANSYS Fluent (includes ANSYS CFD-Post) Release 16.0
  ANSYS TurboGrid Release 16.0
  ANSYS Polyflow (includes ANSYS CFD-Post) Release 16.0
  ANSYS ICEM CFD Release 16.0
  ANSYS Aqwa Release 16.0
  ANSYS Composite PrepPost Release 16.0
  ANSYS Icepak (includes ANSYS CFD-Post) Release 16.0
  Catia, Version 6 Release 16.0
  ANSYS, Inc. License Manager Release 16.0
 
 Setting up CFX Solver run ...
 

 +--------------------------------------------------------------------+
 |                                                                    |
 |                    CFX Command Language for Run                    |
 |                                                                    |
 +--------------------------------------------------------------------+

 LIBRARY:
   MATERIAL: Air Ideal Gas
     Material Description = Air Ideal Gas (constant Cp)
     Material Group = Air Data, Calorically Perfect Ideal Gases
     Option = Pure Substance
     Thermodynamic State = Gas
     PROPERTIES:
       Option = General Material
       EQUATION OF STATE:
         Molar Mass = 28.96 [kg kmol^-1]
         Option = Ideal Gas
       END
       SPECIFIC HEAT CAPACITY:
         Option = Value
         Specific Heat Capacity = 1.0044E+03 [J kg^-1 K^-1]
         Specific Heat Type = Constant Pressure
       END
       REFERENCE STATE:
         Option = Specified Point
         Reference Pressure = 1 [atm]
         Reference Specific Enthalpy = 0. [J/kg]
         Reference Specific Entropy = 0. [J/kg/K]
         Reference Temperature = 25 [C]
       END
       DYNAMIC VISCOSITY:
         Dynamic Viscosity = 1.831E-05 [kg m^-1 s^-1]
         Option = Value
       END
       THERMAL CONDUCTIVITY:
         Option = Value
         Thermal Conductivity = 2.61E-2 [W m^-1 K^-1]
       END
       ABSORPTION COEFFICIENT:
         Absorption Coefficient = 0.01 [m^-1]
         Option = Value
       END
       SCATTERING COEFFICIENT:
         Option = Value
         Scattering Coefficient = 0.0 [m^-1]
       END
       REFRACTIVE INDEX:
         Option = Value
         Refractive Index = 1.0 [m m^-1]
       END
     END
   END
 END
 FLOW: Flow Analysis 1
   SOLUTION UNITS:
     Angle Units = [rad]
     Length Units = [m]
     Mass Units = [kg]
     Solid Angle Units = [sr]
     Temperature Units = [K]
     Time Units = [s]
   END
   ANALYSIS TYPE:
     Option = Steady State
     EXTERNAL SOLVER COUPLING:
       Option = None
     END
   END
   DOMAIN: Default Domain
     Coord Frame = Coord 0
     Domain Type = Fluid
     Location = B110, B137, B24, B51, B82
     BOUNDARY: Default Fluid Fluid Interface Side 1
       Boundary Type = INTERFACE
       Location = \
         F105.110,F109.110,F111.110,F132.137,F138.137,F28.24,F29.24,F54.51
       BOUNDARY CONDITIONS:
         HEAT TRANSFER:
           Option = Conservative Interface Flux
         END
         MASS AND MOMENTUM:
           Option = Conservative Interface Flux
         END
         TURBULENCE:
           Option = Conservative Interface Flux
         END
       END
     END
     BOUNDARY: Default Fluid Fluid Interface Side 2
       Boundary Type = INTERFACE
       Location = F136.137,F30.24,F52.51,F53.51,F55.51,F78.82,F83.82,F84.82
       BOUNDARY CONDITIONS:
         HEAT TRANSFER:
           Option = Conservative Interface Flux
         END
         MASS AND MOMENTUM:
           Option = Conservative Interface Flux
         END
         TURBULENCE:
           Option = Conservative Interface Flux
         END
       END
     END
     BOUNDARY: Inlet
       Boundary Type = INLET
       Location = Inlet
       BOUNDARY CONDITIONS:
         FLOW DIRECTION:
           Option = Normal to Boundary Condition
         END
         FLOW REGIME:
           Option = Subsonic
         END
         HEAT TRANSFER:
           Option = Total Temperature
           Total Temperature = 310 [K]
         END
         MASS AND MOMENTUM:
           Option = Total Pressure
           Relative Pressure = 810000 [Pa]
         END
         TURBULENCE:
           Option = Medium Intensity and Eddy Viscosity Ratio
         END
       END
     END
     BOUNDARY: Outlet
       Boundary Type = OUTLET
       Location = Outlet
       BOUNDARY CONDITIONS:
         FLOW REGIME:
           Option = Subsonic
         END
         MASS AND MOMENTUM:
           Option = Average Static Pressure
           Pressure Profile Blend = 0.05
           Relative Pressure = 648000 [Pa]
         END
         PRESSURE AVERAGING:
           Option = Average Over Whole Outlet
         END
       END
     END
     BOUNDARY: Wall
       Boundary Type = WALL
       Location = Wall
       BOUNDARY CONDITIONS:
         HEAT TRANSFER:
           Option = Adiabatic
         END
         MASS AND MOMENTUM:
           Option = No Slip Wall
         END
         WALL ROUGHNESS:
           Option = Smooth Wall
         END
       END
     END
     DOMAIN MODELS:
       BUOYANCY MODEL:
         Option = Non Buoyant
       END
       DOMAIN MOTION:
         Option = Stationary
       END
       MESH DEFORMATION:
         Option = None
       END
       REFERENCE PRESSURE:
         Reference Pressure = 1 [atm]
       END
     END
     FLUID DEFINITION: Fluid 1
       Material = Air Ideal Gas
       Option = Material Library
       MORPHOLOGY:
         Option = Continuous Fluid
       END
     END
     FLUID MODELS:
       COMBUSTION MODEL:
         Option = None
       END
       HEAT TRANSFER MODEL:
         Include Viscous Work Term = True
         Option = Total Energy
       END
       THERMAL RADIATION MODEL:
         Option = None
       END
       TURBULENCE MODEL:
         Option = k epsilon
       END
       TURBULENT WALL FUNCTIONS:
         High Speed Model = Off
         Option = Scalable
       END
     END
   END
   DOMAIN INTERFACE: Default Fluid Fluid Interface
     Boundary List1 = Default Fluid Fluid Interface Side 1
     Boundary List2 = Default Fluid Fluid Interface Side 2
     Interface Type = Fluid Fluid
     INTERFACE MODELS:
       Option = General Connection
       FRAME CHANGE:
         Option = None
       END
       MASS AND MOMENTUM:
         Option = Conservative Interface Flux
         MOMENTUM INTERFACE MODEL:
           Option = None
         END
       END
       PITCH CHANGE:
         Option = None
       END
     END
     MESH CONNECTION:
       Option = Automatic
     END
   END
   OUTPUT CONTROL:
     RESULTS:
       File Compression Level = Default
       Option = Standard
     END
   END
   SOLVER CONTROL:
     Turbulence Numerics = First Order
     ADVECTION SCHEME:
       Option = High Resolution
     END
     CONVERGENCE CONTROL:
       Length Scale Option = Conservative
       Maximum Number of Iterations = 1000
       Minimum Number of Iterations = 1
       Timescale Control = Auto Timescale
       Timescale Factor = 1.0
     END
     CONVERGENCE CRITERIA:
       Residual Target = 1.E-4
       Residual Type = RMS
     END
     DYNAMIC MODEL CONTROL:
       Global Dynamic Model Control = On
     END
   END
 END
 COMMAND FILE:
   Version = 16.0
   Results Version = 16.0
 END
 SIMULATION CONTROL:
   EXECUTION CONTROL:
     EXECUTABLE SELECTION:
       Double Precision = Yes
     END
     INTERPOLATOR STEP CONTROL:
       Runtime Priority = Standard
       MEMORY CONTROL:
         Memory Allocation Factor = 1.0
       END
     END
     PARALLEL HOST LIBRARY:
       HOST DEFINITION: desktop77trs1e
         Remote Host Name = DESKTOP-77TRS1E
         Host Architecture String = winnt-amd64
         Installation Root = C:\Program Files\ANSYS Inc\v%v\CFX
       END
     END
     PARTITIONER STEP CONTROL:
       Multidomain Option = Automatic
       Runtime Priority = Standard
       EXECUTABLE SELECTION:
         Use Large Problem Partitioner = Off
       END
       MEMORY CONTROL:
         Memory Allocation Factor = 1.0
       END
       PARTITION SMOOTHING:
         Maximum Partition Smoothing Sweeps = 100
         Option = Smooth
       END
       PARTITIONING TYPE:
         MeTiS Type = k-way
         Option = MeTiS
         Partition Size Rule = Automatic
       END
     END
     RUN DEFINITION:
       Run Mode = Full
       Solver Input File = CFX.def
       Solver Results File = G:/Kuliah/Tugas/Semester 10/CFD 2/CD Duct/2D CD \
         duct_pending/dp0_CFX_1_Solution_3/CFX_001.res
     END
     SOLVER STEP CONTROL:
       Runtime Priority = Standard
       MEMORY CONTROL:
         Memory Allocation Factor = 1.0
       END
       PARALLEL ENVIRONMENT:
         Number of Processes = 1
         Start Method = Serial
       END
     END
   END
 END
 

 +--------------------------------------------------------------------+
 |                                                                    |
 |                               Solver                               |
 |                                                                    |
 +--------------------------------------------------------------------+




 +--------------------------------------------------------------------+
 |                                                                    |
 |                       ANSYS(R) CFX(R) Solver                       |
 |                                                                    |
 | Release 16.0                                                       |
 | Build 16.0 2014.11.14-23.10-133146                                 |
 | Sat Nov 15 00:24:02 GMTST 2014                                     |
 |                                                                    |
 |                        Executable Attributes                       |
 |                                                                    |
 |          double-64bit-int32-supfort-optimised-noprof-lcomp         |
 |                                                                    |
 | (C) 2014 ANSYS, Inc.                                               |
 |                                                                    |
 | All rights reserved. Unauthorized use, distribution or duplication |
 | is prohibited. This product is subject to U.S. laws governing      |
 | export and re-export. For full Legal Notice, see documentation.    |
 +--------------------------------------------------------------------+




 +--------------------------------------------------------------------+
 |                  Job Information at Start of Run                   |
 +--------------------------------------------------------------------+

 Run mode:       serial run

 Host computer:  DESKTOP-77TRS1E (PID:17668)

 Job started:    Mon May 03 15:10:22 2021

 +--------------------------------------------------------------------+
 |                        License Information                         |
 +--------------------------------------------------------------------+
 
 License Cap:    ANSYS CFX Solver (Max 512K Nodes)
 License ID:     DESKTOP-77TRS1E-user-8632-011163


 +--------------------------------------------------------------------+
 |        Memory Allocated for Run  (Actual usage may be less)        |
 +--------------------------------------------------------------------+

           | Real       | Integer    | Character | Logical  | Double
 ----------+------------+------------+-----------+----------+----------
 Mwords    |     112.98 |      24.90 |      3.76 |     0.12 |     0.01
 Mbytes    |     862.00 |      94.97 |      3.58 |     0.46 |     0.06
 ----------+------------+------------+-----------+----------+----------


 +--------------------------------------------------------------------+
 |                  Host Memory Information (Mbytes)                  |
 +--------------------------------------------------------------------+
 |          Host           |     System     |   Allocated    |   %    |
 +-------------------------+----------------+----------------+--------+
 | DESKTOP-77TRS1E         |      3536.69   |       961.08   |  27.17 |
 +-------------------------+----------------+----------------+--------+


 +--------------------------------------------------------------------+
 |                     ****** Notice ******                           |
 | The Wall Heat Transfer Coefficient written to the results file for |
 | any turbulent phase with heat transfer is based on the turbulent   |
 | wall function coefficient. It is consistent with the Wall Heat Flux|
 | the wall temperature, and the Wall Adjacent Temperature            |
 | (near-wall temperature).  If you would like it to be based on a    |
 | user-specified bulk temperature instead, please set the expert     |
 | parameter "tbulk for htc = <value>".                               |
 +--------------------------------------------------------------------+

 +--------------------------------------------------------------------+
 |                          Mesh Statistics                           |
 +--------------------------------------------------------------------+
 | Domain Name          | Orthog. Angle | Exp. Factor  | Aspect Ratio |
 +----------------------+---------------+--------------+--------------+
 |                      | Minimum [deg] |   Maximum    |    Maximum   |
 +----------------------+---------------+--------------+--------------+
 | Default Domain       |       11.3  ! |         2 OK |        27 OK |
 +----------------------+---------------+--------------+--------------+
 |                      |  %!  %ok  %OK | %!  %ok  %OK | %!  %ok  %OK |
 +----------------------+---------------+--------------+--------------+
 | Default Domain       |   1   37   62 |  0    0  100 |  0    0  100 |
 +----------------------+---------------+--------------+--------------+

 Domain Name : Default Domain

     Total Number of Nodes                                =      182679

     Total Number of Elements                             =      157240
         Total Number of Hexahedrons                      =      157240

     Total Number of Faces                                =       49004

 Domain Interface Name : Default Fluid Fluid Interface

     Discretization type                                  =         GGI
     Intersection type                                    =      Direct
     Non-overlap area fraction on side 1                  =    2.04E-06
     Non-overlap area fraction on side 2                  =    1.92E-06

 +--------------------------------------------------------------------+
 |                     Average Scale Information                      |
 +--------------------------------------------------------------------+

 Domain Name : Default Domain
     Global Length                                         = 2.0923E-01
     Minimum Extent                                        = 1.2620E-01
     Maximum Extent                                        = 2.0000E+00
     Density                                               = 9.3146E+00
     Dynamic Viscosity                                     = 1.8310E-05
     Velocity                                              = 0.0000E+00
     Speed of Sound                                        = 3.5302E+02
     Mach Number                                           = 0.0000E+00
     Thermal Conductivity                                  = 2.6100E-02
     Specific Heat Capacity at Constant Pressure           = 1.0044E+03
     Specific Heat Capacity at Constant Volume             = 7.1730E+02
     Specific Heat Ratio                                   = 1.4003E+00
     Prandtl Number                                        = 7.0462E-01

 +--------------------------------------------------------------------+
 |                Checking for Isolated Fluid Regions                 |
 +--------------------------------------------------------------------+
 
 No isolated fluid regions were found.

 +--------------------------------------------------------------------+
 |              The Equations Solved in This Calculation              |
 +--------------------------------------------------------------------+

 Subsystem : Momentum and Mass

   U-Mom
   V-Mom
   W-Mom
   P-Mass

 Subsystem : Heat Transfer

   H-Energy

 Subsystem : TurbKE and Diss.K

   K-TurbKE
   E-Diss.K
                   
 CFD Solver started: Mon May 03 15:10:34 2021


 +--------------------------------------------------------------------+
 |                       Convergence History                          |
 +--------------------------------------------------------------------+

 ======================================================================
 |                        Timescale Information                       |
 ----------------------------------------------------------------------
 |       Equation       |         Type          |      Timescale      |
 +----------------------+-----------------------+---------------------+
 | U-Mom                | Auto Timescale        |     2.00227E-04     |
 | V-Mom                | Auto Timescale        |     2.00227E-04     |
 | W-Mom                | Auto Timescale        |     2.00227E-04     |
 | P-Mass               | Auto Timescale        |     2.00227E-04     |
 +----------------------+-----------------------+---------------------+
 | H-Energy             | Auto Timescale        |     2.00227E-04     |
 +----------------------+-----------------------+---------------------+
 | K-TurbKE             | Auto Timescale        |     2.00227E-04     |
 | E-Diss.K             | Auto Timescale        |     2.00227E-04     |
 +----------------------+-----------------------+---------------------+

 ======================================================================
 OUTER LOOP ITERATION =    1                    CPU SECONDS = 1.190E+01
 ----------------------------------------------------------------------
 |       Equation       | Rate | RMS Res | Max Res |  Linear Solution |
 +----------------------+------+---------+---------+------------------+
 | U-Mom                | 0.00 | 3.0E+02 | 5.5E+03 |       1.2E-03  OK|
 | V-Mom                | 0.00 | 1.6E-01 | 4.7E+00 |       2.4E-02  OK|
 | W-Mom                | 0.00 | 1.6E-01 | 4.7E+00 |       2.2E-02  OK|
 | P-Mass               | 0.00 | 5.9E-04 | 9.2E-03 |  9.0  9.9E-03  OK|
 +----------------------+------+---------+---------+------------------+
 | H-Energy             | 0.00 | 7.0E-04 | 3.9E-02 |  5.8  2.3E-04  OK|
 +----------------------+------+---------+---------+------------------+
 | K-TurbKE             | 0.00 | 5.1E-02 | 1.2E+00 |  5.8  3.0E-05  OK|
 | E-Diss.K             | 0.00 | 2.3E-02 | 1.1E+00 | 12.5  1.6E-08  OK|
 +----------------------+------+---------+---------+------------------+

 ======================================================================
 OUTER LOOP ITERATION =    2                    CPU SECONDS = 5.623E+01
 ----------------------------------------------------------------------
 |       Equation       | Rate | RMS Res | Max Res |  Linear Solution |
 +----------------------+------+---------+---------+------------------+
 | U-Mom                | 0.00 | 1.3E+00 | 4.7E+00 |       1.9E-02  OK|
 | V-Mom                | 0.43 | 6.9E-02 | 6.3E-01 |       1.1E-02  OK|
 | W-Mom                | 0.39 | 6.3E-02 | 5.5E-01 |       1.3E-02  OK|
 | P-Mass               | 5.58 | 3.3E-03 | 1.9E-01 |  5.0  9.9E-02  OK|
 +----------------------+------+---------+---------+------------------+
 | H-Energy             | 1.94 | 1.4E-03 | 7.0E-02 | 15.3  4.6E-02  OK|
 +----------------------+------+---------+---------+------------------+
 | K-TurbKE             | 0.01 | 3.9E-04 | 2.8E-02 | 15.3  4.0E-02  OK|
 | E-Diss.K             | 1.40 | 3.2E-02 | 6.0E-01 | 12.4  8.0E-04  OK|
 +----------------------+------+---------+---------+------------------+

 ======================================================================
 OUTER LOOP ITERATION =    3                    CPU SECONDS = 9.767E+01
 ----------------------------------------------------------------------
 |       Equation       | Rate | RMS Res | Max Res |  Linear Solution |
 +----------------------+------+---------+---------+------------------+
 | U-Mom                | 0.17 | 2.2E-01 | 1.3E+00 |       9.4E-04  OK|
 | V-Mom                | 0.17 | 1.2E-02 | 1.6E-01 |       2.8E-04  OK|
 | W-Mom                | 0.18 | 1.1E-02 | 1.6E-01 |       3.9E-04  OK|
 | P-Mass               | 5.37 | 1.8E-02 | 5.4E-01 | 21.0  7.7E-02  OK|
 +----------------------+------+---------+---------+------------------+
 | H-Energy             | 0.24 | 3.2E-04 | 1.1E-02 |  5.9  1.9E-02  OK|
 +----------------------+------+---------+---------+------------------+
 | K-TurbKE             | 2.51 | 9.9E-04 | 2.8E-02 |  5.8  2.8E-02  OK|
 | E-Diss.K             | 1.22 | 3.9E-02 | 1.0E+00 | 82.9  9.7E-02  OK|
 +----------------------+------+---------+---------+------------------+

 ======================================================================
 OUTER LOOP ITERATION =    4                    CPU SECONDS = 1.468E+02
 ----------------------------------------------------------------------
 |       Equation       | Rate | RMS Res | Max Res |  Linear Solution |
 +----------------------+------+---------+---------+------------------+
 | U-Mom                | 0.05 | 1.1E-02 | 9.6E-02 |       2.9E-02  OK|
 | V-Mom                | 2.01 | 2.4E-02 | 8.2E-01 |       3.6E-02  OK|
 | W-Mom                | 1.94 | 2.2E-02 | 9.0E-01 |       3.4E-02  OK|
 | P-Mass               | 0.50 | 8.8E-03 | 8.7E-01 |  5.0  2.3E-02  OK|
 +----------------------+------+---------+---------+------------------+
 +--------------------------------------------------------------------+
 |                     ****** Notice ******                           |
 |  A wall has been placed at portion(s) of an OUTLET                 |
 |  boundary condition (at   8.9% of the faces,   8.1% of the area)   |
 |  to prevent fluid from flowing into the domain.                    |
 |  The boundary condition name is: Outlet.                           |
 |  The fluid name is: Fluid 1.                                       |
 |  If this situation persists, consider switching                    |
 |  to an Opening type boundary condition instead.                    |
 +--------------------------------------------------------------------+
 | H-Energy             |99.99 | 4.0E-02 | 5.3E-01 |  5.7  1.3E-02  OK|
 +----------------------+------+---------+---------+------------------+
 | K-TurbKE             |38.62 | 3.8E-02 | 2.8E-01 |  5.7  1.7E-02  OK|
 | E-Diss.K             | 0.91 | 3.6E-02 | 8.4E-01 |  7.6  3.0E-02  OK|
 +----------------------+------+---------+---------+------------------+

 ======================================================================
 OUTER LOOP ITERATION =    5                    CPU SECONDS = 1.862E+02
 ----------------------------------------------------------------------
 |       Equation       | Rate | RMS Res | Max Res |  Linear Solution |
 +----------------------+------+---------+---------+------------------+
 | U-Mom                | 0.01 | 1.2E-04 | 2.0E-03 |       1.4E-03  OK|
 | V-Mom                | 0.01 | 2.3E-04 | 1.6E-02 |       1.5E-03  OK|
 | W-Mom                | 0.01 | 2.1E-04 | 1.4E-02 |       4.3E-03  OK|
 | P-Mass               | 0.13 | 1.1E-03 | 3.6E-01 | 17.0  8.0E-02  OK|
 +----------------------+------+---------+---------+------------------+
 +--------------------------------------------------------------------+
 |                     ****** Notice ******                           |
 |  A wall has been placed at portion(s) of an OUTLET                 |
 |  boundary condition (at  11.9% of the faces,  11.0% of the area)   |
 |  to prevent fluid from flowing into the domain.                    |
 |  The boundary condition name is: Outlet.                           |
 |  The fluid name is: Fluid 1.                                       |
 |  If this situation persists, consider switching                    |
 |  to an Opening type boundary condition instead.                    |
 +--------------------------------------------------------------------+
 | H-Energy             | 0.06 | 2.5E-03 | 5.7E-01 |  5.7  1.2E-03  OK|
 +----------------------+------+---------+---------+------------------+
 | K-TurbKE             | 0.08 | 2.9E-03 | 5.0E-01 |  5.7  7.0E-03  OK|
 | E-Diss.K             | 0.19 | 6.8E-03 | 1.0E+00 | 12.2  4.4E-04  OK|
 +----------------------+------+---------+---------+------------------+
 +--------------------------------------------------------------------+
 | Notice: The maximum Mach number is  8.458E+01.                     |
 +--------------------------------------------------------------------+

 ======================================================================
 |                        Timescale Information                       |
 ----------------------------------------------------------------------
 |       Equation       |         Type          |      Timescale      |
 +----------------------+-----------------------+---------------------+
 | U-Mom                | Auto Timescale        |     1.87545E-04     |
 | V-Mom                | Auto Timescale        |     1.87545E-04     |
 | W-Mom                | Auto Timescale        |     1.87545E-04     |
 | P-Mass               | Auto Timescale        |     1.87545E-04     |
 +----------------------+-----------------------+---------------------+
 | H-Energy             | Auto Timescale        |     1.87545E-04     |
 +----------------------+-----------------------+---------------------+
 | K-TurbKE             | Auto Timescale        |     1.87545E-04     |
 | E-Diss.K             | Auto Timescale        |     1.87545E-04     |
 +----------------------+-----------------------+---------------------+

 ======================================================================
 OUTER LOOP ITERATION =    6                    CPU SECONDS = 2.297E+02
 ----------------------------------------------------------------------
 |       Equation       | Rate | RMS Res | Max Res |  Linear Solution |
 +----------------------+------+---------+---------+------------------+
 | U-Mom                | 1.45 | 1.7E-04 | 2.6E-02 |       3.4E-02  OK|
 | V-Mom                |15.91 | 3.6E-03 | 5.4E-01 |       2.2E-03  OK|
 | W-Mom                |13.92 | 2.9E-03 | 5.6E-01 |       1.8E-03  OK|
 | P-Mass               | 0.70 | 8.0E-04 | 2.7E-01 |  9.0  4.5E+00  F |
 +----------------------+------+---------+---------+------------------+
 +--------------------------------------------------------------------+
 |                     ****** Notice ******                           |
 |  A wall has been placed at portion(s) of an OUTLET                 |
 |  boundary condition (at  92.8% of the faces,  92.1% of the area)   |
 |  to prevent fluid from flowing into the domain.                    |
 |  The boundary condition name is: Outlet.                           |
 |  The fluid name is: Fluid 1.                                       |
 |  If this situation persists, consider switching                    |
 |  to an Opening type boundary condition instead.                    |
 +--------------------------------------------------------------------+
 | H-Energy             | 0.46 | 1.1E-03 | 2.7E-01 |  5.7  5.7E-03  OK|
 +----------------------+------+---------+---------+------------------+
 | K-TurbKE             | 0.83 | 2.4E-03 | 3.2E-01 |  5.7  1.3E-02  OK|
 | E-Diss.K             | 6.42 | 4.3E-02 | 1.0E+00 | 12.3  5.2E-03  OK|
 +----------------------+------+---------+---------+------------------+
 +--------------------------------------------------------------------+
 | Notice: The maximum Mach number is  1.102E+02.                     |
 +--------------------------------------------------------------------+

 ======================================================================
 OUTER LOOP ITERATION =    7                    CPU SECONDS = 2.714E+02
 ----------------------------------------------------------------------
 |       Equation       | Rate | RMS Res | Max Res |  Linear Solution |
 +----------------------+------+---------+---------+------------------+
 | U-Mom                | 0.00 | 9.6E-21 | 6.6E-19 |       9.6E+12  * |
 | V-Mom                | 0.00 | 3.3E-20 | 3.1E-18 |       2.7E+12  * |
 | W-Mom                | 0.00 | 3.4E-20 | 5.1E-18 |       1.5E+12  * |
 | P-Mass               | 0.00 | 1.2E-35 | 5.2E-33 |  9.0  6.6E+15  * |
 +----------------------+------+---------+---------+------------------+
 +--------------------------------------------------------------------+
 |                     ****** Notice ******                           |
 |  A wall has been placed at portion(s) of an INLET                  |
 |  boundary condition (at 100.0% of the faces, 100.0% of the area)   |
 |  to prevent fluid from flowing out of the domain.                  |
 |  The boundary condition name is: Inlet.                            |
 |  The fluid name is: Fluid 1.                                       |
 |  If this situation persists, consider switching                    |
 |  to an Opening type boundary condition instead.                    |
 +--------------------------------------------------------------------+
 +--------------------------------------------------------------------+
 |                     ****** Notice ******                           |
 |  A wall has been placed at portion(s) of an OUTLET                 |
 |  boundary condition (at 100.0% of the faces, 100.0% of the area)   |
 |  to prevent fluid from flowing into the domain.                    |
 |  The boundary condition name is: Outlet.                           |
 |  The fluid name is: Fluid 1.                                       |
 |  If this situation persists, consider switching                    |
 |  to an Opening type boundary condition instead.                    |
 +--------------------------------------------------------------------+
 
 +--------------------------------------------------------------------+
 | ERROR #004100018 has occurred in subroutine FINMES.                |
 | Message:                                                           |
 | Fatal overflow in linear solver.                                   |
 +--------------------------------------------------------------------+

 +--------------------------------------------------------------------+
 |                An error has occurred in cfx5solve:                 |
 |                                                                    |
 | The ANSYS CFX solver exited with return code 1.   No results file  |
 | has been created.                                                  |
 +--------------------------------------------------------------------+

End of solution stage.

 +--------------------------------------------------------------------+
 | The following user files have been saved in the directory          |
 | G:/Kuliah/Tugas/Semester 10/CFD 2/CD Duct/2D CD                    |
 | duct_pending/dp0_CFX_1_Solution_3/CFX_001:                         |
 |                                                                    |
 | mon                                                                |
 +--------------------------------------------------------------------+


 +--------------------------------------------------------------------+
 | For CFX runs launched from Workbench, the final locations of       |
 | directories and files generated may differ from those shown.       |
 +--------------------------------------------------------------------+


 +--------------------------------------------------------------------+
 |                              Warning!                              |
 |                                                                    |
 | After waiting for 60 seconds, 1 solver manager process(es) appear  |
 | not to have noticed that this run has ended.  You may get errors   |
 | removing some files if they are still open in the solver manager.  |
 +--------------------------------------------------------------------+


This run of the ANSYS CFX Solver has finished.
