 This run of the CFX Release 16.0 Solver started at 17:40:15 on 03 May
 2021 by user user on DESKTOP-77TRS1E (amd_opteron.sse2_winnt) using the
 command:
 
  "C:\Program Files\ANSYS Inc\v160\CFX\bin\perllib\cfx5solve.pl" -batch
    -ccl runInput.ccl -fullname CFX_001
 
 Release 16.0
 
  Point Releases and Patches installed:
  ANSYS, Inc. Products Release 16.0
  ANSYS Mechanical Products Release 16.0
  ANSYS Autodyn Release 16.0
  ANSYS LS-DYNA Release 16.0
  ANSYS AIM Release 16.0
  ANSYS CFX (includes ANSYS CFD-Post) Release 16.0
  ANSYS Fluent (includes ANSYS CFD-Post) Release 16.0
  ANSYS TurboGrid Release 16.0
  ANSYS Polyflow (includes ANSYS CFD-Post) Release 16.0
  ANSYS ICEM CFD Release 16.0
  ANSYS Aqwa Release 16.0
  ANSYS Composite PrepPost Release 16.0
  ANSYS Icepak (includes ANSYS CFD-Post) Release 16.0
  Catia, Version 6 Release 16.0
  ANSYS, Inc. License Manager Release 16.0
 
 Setting up CFX Solver run ...
 

 +--------------------------------------------------------------------+
 |                                                                    |
 |                    CFX Command Language for Run                    |
 |                                                                    |
 +--------------------------------------------------------------------+

 LIBRARY:
   MATERIAL: Air Ideal Gas
     Material Description = Air Ideal Gas (constant Cp)
     Material Group = Air Data, Calorically Perfect Ideal Gases
     Option = Pure Substance
     Thermodynamic State = Gas
     PROPERTIES:
       Option = General Material
       EQUATION OF STATE:
         Molar Mass = 28.96 [kg kmol^-1]
         Option = Ideal Gas
       END
       SPECIFIC HEAT CAPACITY:
         Option = Value
         Specific Heat Capacity = 1.0044E+03 [J kg^-1 K^-1]
         Specific Heat Type = Constant Pressure
       END
       REFERENCE STATE:
         Option = Specified Point
         Reference Pressure = 1 [atm]
         Reference Specific Enthalpy = 0. [J/kg]
         Reference Specific Entropy = 0. [J/kg/K]
         Reference Temperature = 25 [C]
       END
       DYNAMIC VISCOSITY:
         Dynamic Viscosity = 1.831E-05 [kg m^-1 s^-1]
         Option = Value
       END
       THERMAL CONDUCTIVITY:
         Option = Value
         Thermal Conductivity = 2.61E-2 [W m^-1 K^-1]
       END
       ABSORPTION COEFFICIENT:
         Absorption Coefficient = 0.01 [m^-1]
         Option = Value
       END
       SCATTERING COEFFICIENT:
         Option = Value
         Scattering Coefficient = 0.0 [m^-1]
       END
       REFRACTIVE INDEX:
         Option = Value
         Refractive Index = 1.0 [m m^-1]
       END
     END
   END
 END
 FLOW: Flow Analysis 1
   SOLUTION UNITS:
     Angle Units = [rad]
     Length Units = [m]
     Mass Units = [kg]
     Solid Angle Units = [sr]
     Temperature Units = [K]
     Time Units = [s]
   END
   ANALYSIS TYPE:
     Option = Steady State
     EXTERNAL SOLVER COUPLING:
       Option = None
     END
   END
   DOMAIN: Default Domain
     Coord Frame = Coord 0
     Domain Type = Fluid
     Location = B110, B137, B24, B51, B82
     BOUNDARY: Default Fluid Fluid Interface Side 1
       Boundary Type = INTERFACE
       Location = \
         F105.110,F109.110,F111.110,F132.137,F138.137,F28.24,F29.24,F54.51
       BOUNDARY CONDITIONS:
         HEAT TRANSFER:
           Option = Conservative Interface Flux
         END
         MASS AND MOMENTUM:
           Option = Conservative Interface Flux
         END
         TURBULENCE:
           Option = Conservative Interface Flux
         END
       END
     END
     BOUNDARY: Default Fluid Fluid Interface Side 2
       Boundary Type = INTERFACE
       Location = F136.137,F30.24,F52.51,F53.51,F55.51,F78.82,F83.82,F84.82
       BOUNDARY CONDITIONS:
         HEAT TRANSFER:
           Option = Conservative Interface Flux
         END
         MASS AND MOMENTUM:
           Option = Conservative Interface Flux
         END
         TURBULENCE:
           Option = Conservative Interface Flux
         END
       END
     END
     BOUNDARY: Inlet
       Boundary Type = INLET
       Location = Inlet
       BOUNDARY CONDITIONS:
         FLOW REGIME:
           Option = Subsonic
         END
         HEAT TRANSFER:
           Option = Total Temperature
           Total Temperature = 310 [K]
         END
         MASS AND MOMENTUM:
           Normal Speed = 40.5 [m s^-1]
           Option = Normal Speed
         END
         TURBULENCE:
           Option = Medium Intensity and Eddy Viscosity Ratio
         END
       END
     END
     BOUNDARY: Outlet
       Boundary Type = OUTLET
       Location = Outlet
       BOUNDARY CONDITIONS:
         FLOW REGIME:
           Option = Supersonic
         END
       END
     END
     BOUNDARY: Wall
       Boundary Type = WALL
       Location = Wall
       BOUNDARY CONDITIONS:
         HEAT TRANSFER:
           Option = Adiabatic
         END
         MASS AND MOMENTUM:
           Option = No Slip Wall
         END
         WALL ROUGHNESS:
           Option = Smooth Wall
         END
       END
     END
     DOMAIN MODELS:
       BUOYANCY MODEL:
         Option = Non Buoyant
       END
       DOMAIN MOTION:
         Option = Stationary
       END
       MESH DEFORMATION:
         Option = None
       END
       REFERENCE PRESSURE:
         Reference Pressure = 0 [atm]
       END
     END
     FLUID DEFINITION: Fluid 1
       Material = Air Ideal Gas
       Option = Material Library
       MORPHOLOGY:
         Option = Continuous Fluid
       END
     END
     FLUID MODELS:
       COMBUSTION MODEL:
         Option = None
       END
       HEAT TRANSFER MODEL:
         Include Viscous Work Term = True
         Option = Total Energy
       END
       THERMAL RADIATION MODEL:
         Option = None
       END
       TURBULENCE MODEL:
         Option = k epsilon
       END
       TURBULENT WALL FUNCTIONS:
         High Speed Model = Off
         Option = Scalable
       END
     END
   END
   DOMAIN INTERFACE: Default Fluid Fluid Interface
     Boundary List1 = Default Fluid Fluid Interface Side 1
     Boundary List2 = Default Fluid Fluid Interface Side 2
     Interface Type = Fluid Fluid
     INTERFACE MODELS:
       Option = General Connection
       FRAME CHANGE:
         Option = None
       END
       MASS AND MOMENTUM:
         Option = Conservative Interface Flux
         MOMENTUM INTERFACE MODEL:
           Option = None
         END
       END
       PITCH CHANGE:
         Option = None
       END
     END
     MESH CONNECTION:
       Option = Automatic
     END
   END
   OUTPUT CONTROL:
     RESULTS:
       File Compression Level = Default
       Option = Standard
     END
   END
   SOLVER CONTROL:
     Turbulence Numerics = First Order
     ADVECTION SCHEME:
       Option = High Resolution
     END
     CONVERGENCE CONTROL:
       Length Scale Option = Conservative
       Maximum Number of Iterations = 1000
       Minimum Number of Iterations = 1
       Timescale Control = Auto Timescale
       Timescale Factor = 1.0
     END
     CONVERGENCE CRITERIA:
       Residual Target = 1.E-4
       Residual Type = RMS
     END
     DYNAMIC MODEL CONTROL:
       Global Dynamic Model Control = On
     END
   END
 END
 COMMAND FILE:
   Version = 16.0
   Results Version = 16.0
 END
 SIMULATION CONTROL:
   EXECUTION CONTROL:
     EXECUTABLE SELECTION:
       Double Precision = Yes
     END
     INTERPOLATOR STEP CONTROL:
       Runtime Priority = Standard
       MEMORY CONTROL:
         Memory Allocation Factor = 1.0
       END
     END
     PARALLEL HOST LIBRARY:
       HOST DEFINITION: desktop77trs1e
         Remote Host Name = DESKTOP-77TRS1E
         Host Architecture String = winnt-amd64
         Installation Root = C:\Program Files\ANSYS Inc\v%v\CFX
       END
     END
     PARTITIONER STEP CONTROL:
       Multidomain Option = Automatic
       Runtime Priority = Standard
       EXECUTABLE SELECTION:
         Use Large Problem Partitioner = Off
       END
       MEMORY CONTROL:
         Memory Allocation Factor = 1.0
       END
       PARTITION SMOOTHING:
         Maximum Partition Smoothing Sweeps = 100
         Option = Smooth
       END
       PARTITIONING TYPE:
         MeTiS Type = k-way
         Option = MeTiS
         Partition Size Rule = Automatic
       END
     END
     RUN DEFINITION:
       Run Mode = Full
       Solver Input File = CFX.def
       Solver Results File = G:/Kuliah/Tugas/Semester 10/CFD 2/CD Duct/2D CD \
         duct_pending/dp0_CFX_Solution_2/CFX_001.res
     END
     SOLVER STEP CONTROL:
       Runtime Priority = Standard
       MEMORY CONTROL:
         Memory Allocation Factor = 1.0
       END
       PARALLEL ENVIRONMENT:
         Number of Processes = 1
         Start Method = Serial
       END
     END
   END
 END
 

 +--------------------------------------------------------------------+
 |                                                                    |
 |                               Solver                               |
 |                                                                    |
 +--------------------------------------------------------------------+




 +--------------------------------------------------------------------+
 |                                                                    |
 |                       ANSYS(R) CFX(R) Solver                       |
 |                                                                    |
 | Release 16.0                                                       |
 | Build 16.0 2014.11.14-23.10-133146                                 |
 | Sat Nov 15 00:24:02 GMTST 2014                                     |
 |                                                                    |
 |                        Executable Attributes                       |
 |                                                                    |
 |          double-64bit-int32-supfort-optimised-noprof-lcomp         |
 |                                                                    |
 | (C) 2014 ANSYS, Inc.                                               |
 |                                                                    |
 | All rights reserved. Unauthorized use, distribution or duplication |
 | is prohibited. This product is subject to U.S. laws governing      |
 | export and re-export. For full Legal Notice, see documentation.    |
 +--------------------------------------------------------------------+




 +--------------------------------------------------------------------+
 |                  Job Information at Start of Run                   |
 +--------------------------------------------------------------------+

 Run mode:       serial run

 Host computer:  DESKTOP-77TRS1E (PID:16644)

 Job started:    Mon May 03 17:40:22 2021

 +--------------------------------------------------------------------+
 |                        License Information                         |
 +--------------------------------------------------------------------+
 
 License Cap:    ANSYS CFX Solver (Max 512K Nodes)
 License ID:     DESKTOP-77TRS1E-user-8204-008968


 +--------------------------------------------------------------------+
 |        Memory Allocated for Run  (Actual usage may be less)        |
 +--------------------------------------------------------------------+

           | Real       | Integer    | Character | Logical  | Double
 ----------+------------+------------+-----------+----------+----------
 Mwords    |     129.33 |      27.43 |      3.75 |     0.12 |     0.01
 Mbytes    |     986.70 |     104.62 |      3.58 |     0.46 |     0.06
 ----------+------------+------------+-----------+----------+----------


 +--------------------------------------------------------------------+
 |                  Host Memory Information (Mbytes)                  |
 +--------------------------------------------------------------------+
 |          Host           |     System     |   Allocated    |   %    |
 +-------------------------+----------------+----------------+--------+
 | DESKTOP-77TRS1E         |      3536.69   |      1095.42   |  30.97 |
 +-------------------------+----------------+----------------+--------+


 +--------------------------------------------------------------------+
 |                     ****** Notice ******                           |
 | The Wall Heat Transfer Coefficient written to the results file for |
 | any turbulent phase with heat transfer is based on the turbulent   |
 | wall function coefficient. It is consistent with the Wall Heat Flux|
 | the wall temperature, and the Wall Adjacent Temperature            |
 | (near-wall temperature).  If you would like it to be based on a    |
 | user-specified bulk temperature instead, please set the expert     |
 | parameter "tbulk for htc = <value>".                               |
 +--------------------------------------------------------------------+

 +--------------------------------------------------------------------+
 |                          Mesh Statistics                           |
 +--------------------------------------------------------------------+
 | Domain Name          | Orthog. Angle | Exp. Factor  | Aspect Ratio |
 +----------------------+---------------+--------------+--------------+
 |                      | Minimum [deg] |   Maximum    |    Maximum   |
 +----------------------+---------------+--------------+--------------+
 | Default Domain       |       51.8 OK |         1 OK |         5 OK |
 +----------------------+---------------+--------------+--------------+
 |                      |  %!  %ok  %OK | %!  %ok  %OK | %!  %ok  %OK |
 +----------------------+---------------+--------------+--------------+
 | Default Domain       |   0    0  100 |  0    0  100 |  0    0  100 |
 +----------------------+---------------+--------------+--------------+

 Domain Name : Default Domain

     Total Number of Nodes                                =      143157

     Total Number of Elements                             =      110400
         Total Number of Hexahedrons                      =      110400

     Total Number of Faces                                =       61352

 Domain Interface Name : Default Fluid Fluid Interface

     Discretization type                                  =         GGI
     Intersection type                                    =      Direct
     Non-overlap area fraction on side 1                  =    0.00E+00
     Non-overlap area fraction on side 2                  =    0.00E+00

 +--------------------------------------------------------------------+
 |                   Reference Pressure Information                   |
 +--------------------------------------------------------------------+

 Domain Group: Default Domain
  
   Pressure has not been set at any boundary conditions.
   The pressure will be set to  0.00000E+00 at the following location:
   Domain      : Default Domain
   Node        :        1 (equation         1)
   Coordinates : ( 1.99496E+00,-3.57993E-02,-5.28233E-03).
                             
  Fatal bounds error detected
  ---------------------------
  Variable: Absolute Pressure
  Locale  : Default Domain

 +--------------------------------------------------------------------+
 |                    Writing crash recovery file                     |
 +--------------------------------------------------------------------+
  
 Details of error:-
 ----------------
 Error detected by routine MAKDAT 
 CDANAM =  LVAR CDTYPE =  INTR ISIZE =  137
 CRESLT = OLD 
  
 Current Directory : /FLOW/ALGORITHM/ZN1/SYSTEM/VARIABLES

 +--------------------------------------------------------------------+
 |                An error has occurred in cfx5solve:                 |
 |                                                                    |
 | The ANSYS CFX solver exited with return code 1.   No results file  |
 | has been created.                                                  |
 +--------------------------------------------------------------------+

End of solution stage.

 +--------------------------------------------------------------------+
 |                              Warning!                              |
 |                                                                    |
 | The ANSYS CFX Solver has written a crash recovery file.  This file |
 | has been saved as G:/Kuliah/Tugas/Semester 10/CFD 2/CD Duct/2D CD  |
 | duct_pending/dp0_CFX_Solution_2/CFX_001.res.err and may be an aid  |
 | to diagnosing the problem or restarting the run.  More details     |
 | should be available in the solver output section of the output     |
 | file.  Note that a lock file was left for the crash file when the  |
 | solver exited, and so it is probably incomplete.                   |
 +--------------------------------------------------------------------+


 +--------------------------------------------------------------------+
 | The following user files have been saved in the directory          |
 | G:/Kuliah/Tugas/Semester 10/CFD 2/CD Duct/2D CD                    |
 | duct_pending/dp0_CFX_Solution_2/CFX_001:                           |
 |                                                                    |
 | mon                                                                |
 +--------------------------------------------------------------------+


 +--------------------------------------------------------------------+
 | For CFX runs launched from Workbench, the final locations of       |
 | directories and files generated may differ from those shown.       |
 +--------------------------------------------------------------------+


This run of the ANSYS CFX Solver has finished.
