 This run of the CFX Release 16.0 Solver started at 19:04:52 on 03 May
 2021 by user user on DESKTOP-77TRS1E (amd_opteron.sse2_winnt) using the
 command:
 
  "C:\Program Files\ANSYS Inc\v160\CFX\bin\perllib\cfx5solve.pl" -batch
    -ccl runInput.ccl -fullname CFX_002
 
 Release 16.0
 
  Point Releases and Patches installed:
  ANSYS, Inc. Products Release 16.0
  ANSYS Mechanical Products Release 16.0
  ANSYS Autodyn Release 16.0
  ANSYS LS-DYNA Release 16.0
  ANSYS AIM Release 16.0
  ANSYS CFX (includes ANSYS CFD-Post) Release 16.0
  ANSYS Fluent (includes ANSYS CFD-Post) Release 16.0
  ANSYS TurboGrid Release 16.0
  ANSYS Polyflow (includes ANSYS CFD-Post) Release 16.0
  ANSYS ICEM CFD Release 16.0
  ANSYS Aqwa Release 16.0
  ANSYS Composite PrepPost Release 16.0
  ANSYS Icepak (includes ANSYS CFD-Post) Release 16.0
  Catia, Version 6 Release 16.0
  ANSYS, Inc. License Manager Release 16.0
 
 Setting up CFX Solver run ...
 

 +--------------------------------------------------------------------+
 |                                                                    |
 |                    CFX Command Language for Run                    |
 |                                                                    |
 +--------------------------------------------------------------------+

 LIBRARY:
   MATERIAL: Air Ideal Gas
     Material Description = Air Ideal Gas (constant Cp)
     Material Group = Air Data, Calorically Perfect Ideal Gases
     Option = Pure Substance
     Thermodynamic State = Gas
     PROPERTIES:
       Option = General Material
       EQUATION OF STATE:
         Molar Mass = 28.96 [kg kmol^-1]
         Option = Ideal Gas
       END
       SPECIFIC HEAT CAPACITY:
         Option = Value
         Specific Heat Capacity = 1.0044E+03 [J kg^-1 K^-1]
         Specific Heat Type = Constant Pressure
       END
       REFERENCE STATE:
         Option = Specified Point
         Reference Pressure = 1 [atm]
         Reference Specific Enthalpy = 0. [J/kg]
         Reference Specific Entropy = 0. [J/kg/K]
         Reference Temperature = 25 [C]
       END
       DYNAMIC VISCOSITY:
         Dynamic Viscosity = 1.831E-05 [kg m^-1 s^-1]
         Option = Value
       END
       THERMAL CONDUCTIVITY:
         Option = Value
         Thermal Conductivity = 2.61E-2 [W m^-1 K^-1]
       END
       ABSORPTION COEFFICIENT:
         Absorption Coefficient = 0.01 [m^-1]
         Option = Value
       END
       SCATTERING COEFFICIENT:
         Option = Value
         Scattering Coefficient = 0.0 [m^-1]
       END
       REFRACTIVE INDEX:
         Option = Value
         Refractive Index = 1.0 [m m^-1]
       END
     END
   END
 END
 FLOW: Flow Analysis 1
   SOLUTION UNITS:
     Angle Units = [rad]
     Length Units = [m]
     Mass Units = [kg]
     Solid Angle Units = [sr]
     Temperature Units = [K]
     Time Units = [s]
   END
   ANALYSIS TYPE:
     Option = Steady State
     EXTERNAL SOLVER COUPLING:
       Option = None
     END
   END
   DOMAIN: Default Domain
     Coord Frame = Coord 0
     Domain Type = Fluid
     Location = B110, B137, B24, B51, B82
     BOUNDARY: Default Fluid Fluid Interface Side 1
       Boundary Type = INTERFACE
       Location = \
         F105.110,F109.110,F111.110,F132.137,F138.137,F28.24,F29.24,F54.51
       BOUNDARY CONDITIONS:
         HEAT TRANSFER:
           Option = Conservative Interface Flux
         END
         MASS AND MOMENTUM:
           Option = Conservative Interface Flux
         END
         TURBULENCE:
           Option = Conservative Interface Flux
         END
       END
     END
     BOUNDARY: Default Fluid Fluid Interface Side 2
       Boundary Type = INTERFACE
       Location = F136.137,F30.24,F52.51,F53.51,F55.51,F78.82,F83.82,F84.82
       BOUNDARY CONDITIONS:
         HEAT TRANSFER:
           Option = Conservative Interface Flux
         END
         MASS AND MOMENTUM:
           Option = Conservative Interface Flux
         END
         TURBULENCE:
           Option = Conservative Interface Flux
         END
       END
     END
     BOUNDARY: Inlet
       Boundary Type = INLET
       Location = Inlet
       BOUNDARY CONDITIONS:
         FLOW REGIME:
           Option = Subsonic
         END
         HEAT TRANSFER:
           Option = Total Temperature
           Total Temperature = 310 [K]
         END
         MASS AND MOMENTUM:
           Normal Speed = 40.5 [m s^-1]
           Option = Normal Speed
         END
         TURBULENCE:
           Option = Medium Intensity and Eddy Viscosity Ratio
         END
       END
     END
     BOUNDARY: Outlet
       Boundary Type = OUTLET
       Location = Outlet
       BOUNDARY CONDITIONS:
         FLOW REGIME:
           Option = Supersonic
         END
       END
     END
     BOUNDARY: Wall
       Boundary Type = WALL
       Location = Wall
       BOUNDARY CONDITIONS:
         HEAT TRANSFER:
           Option = Adiabatic
         END
         MASS AND MOMENTUM:
           Option = No Slip Wall
         END
         WALL ROUGHNESS:
           Option = Smooth Wall
         END
       END
     END
     DOMAIN MODELS:
       BUOYANCY MODEL:
         Option = Non Buoyant
       END
       DOMAIN MOTION:
         Option = Stationary
       END
       MESH DEFORMATION:
         Option = None
       END
       REFERENCE PRESSURE:
         Reference Pressure = 1 [atm]
       END
     END
     FLUID DEFINITION: Fluid 1
       Material = Air Ideal Gas
       Option = Material Library
       MORPHOLOGY:
         Option = Continuous Fluid
       END
     END
     FLUID MODELS:
       COMBUSTION MODEL:
         Option = None
       END
       HEAT TRANSFER MODEL:
         Include Viscous Work Term = True
         Option = Total Energy
       END
       THERMAL RADIATION MODEL:
         Option = None
       END
       TURBULENCE MODEL:
         Option = k epsilon
       END
       TURBULENT WALL FUNCTIONS:
         High Speed Model = Off
         Option = Scalable
       END
     END
   END
   DOMAIN INTERFACE: Default Fluid Fluid Interface
     Boundary List1 = Default Fluid Fluid Interface Side 1
     Boundary List2 = Default Fluid Fluid Interface Side 2
     Interface Type = Fluid Fluid
     INTERFACE MODELS:
       Option = General Connection
       FRAME CHANGE:
         Option = None
       END
       MASS AND MOMENTUM:
         Option = Conservative Interface Flux
         MOMENTUM INTERFACE MODEL:
           Option = None
         END
       END
       PITCH CHANGE:
         Option = None
       END
     END
     MESH CONNECTION:
       Option = Automatic
     END
   END
   OUTPUT CONTROL:
     RESULTS:
       File Compression Level = Default
       Option = Standard
     END
   END
   SOLVER CONTROL:
     Turbulence Numerics = First Order
     ADVECTION SCHEME:
       Option = High Resolution
     END
     CONVERGENCE CONTROL:
       Length Scale Option = Conservative
       Maximum Number of Iterations = 1000
       Minimum Number of Iterations = 1
       Timescale Control = Auto Timescale
       Timescale Factor = 1.0
     END
     CONVERGENCE CRITERIA:
       Residual Target = 1.E-4
       Residual Type = RMS
     END
     DYNAMIC MODEL CONTROL:
       Global Dynamic Model Control = On
     END
   END
 END
 COMMAND FILE:
   Version = 16.0
   Results Version = 16.0
 END
 SIMULATION CONTROL:
   EXECUTION CONTROL:
     EXECUTABLE SELECTION:
       Double Precision = Yes
     END
     INTERPOLATOR STEP CONTROL:
       Runtime Priority = Standard
       MEMORY CONTROL:
         Memory Allocation Factor = 1.0
       END
     END
     PARALLEL HOST LIBRARY:
       HOST DEFINITION: desktop77trs1e
         Remote Host Name = DESKTOP-77TRS1E
         Host Architecture String = winnt-amd64
         Installation Root = C:\Program Files\ANSYS Inc\v%v\CFX
       END
     END
     PARTITIONER STEP CONTROL:
       Multidomain Option = Automatic
       Runtime Priority = Standard
       EXECUTABLE SELECTION:
         Use Large Problem Partitioner = Off
       END
       MEMORY CONTROL:
         Memory Allocation Factor = 1.0
       END
       PARTITION SMOOTHING:
         Maximum Partition Smoothing Sweeps = 100
         Option = Smooth
       END
       PARTITIONING TYPE:
         MeTiS Type = k-way
         Option = MeTiS
         Partition Size Rule = Automatic
       END
     END
     RUN DEFINITION:
       Run Mode = Full
       Solver Input File = CFX.def
       Solver Results File = G:/Kuliah/Tugas/Semester 10/CFD 2/CD Duct/2D CD \
         duct_pending/dp0_CFX_Solution_2/CFX_002.res
     END
     SOLVER STEP CONTROL:
       Runtime Priority = Standard
       MEMORY CONTROL:
         Memory Allocation Factor = 1.0
       END
       PARALLEL ENVIRONMENT:
         Number of Processes = 1
         Start Method = Serial
       END
     END
   END
 END
 

 +--------------------------------------------------------------------+
 |                                                                    |
 |                               Solver                               |
 |                                                                    |
 +--------------------------------------------------------------------+




 +--------------------------------------------------------------------+
 |                                                                    |
 |                       ANSYS(R) CFX(R) Solver                       |
 |                                                                    |
 | Release 16.0                                                       |
 | Build 16.0 2014.11.14-23.10-133146                                 |
 | Sat Nov 15 00:24:02 GMTST 2014                                     |
 |                                                                    |
 |                        Executable Attributes                       |
 |                                                                    |
 |          double-64bit-int32-supfort-optimised-noprof-lcomp         |
 |                                                                    |
 | (C) 2014 ANSYS, Inc.                                               |
 |                                                                    |
 | All rights reserved. Unauthorized use, distribution or duplication |
 | is prohibited. This product is subject to U.S. laws governing      |
 | export and re-export. For full Legal Notice, see documentation.    |
 +--------------------------------------------------------------------+




 +--------------------------------------------------------------------+
 |                  Job Information at Start of Run                   |
 +--------------------------------------------------------------------+

 Run mode:       serial run

 Host computer:  DESKTOP-77TRS1E (PID:9712)

 Job started:    Mon May 03 19:04:58 2021

 +--------------------------------------------------------------------+
 |                        License Information                         |
 +--------------------------------------------------------------------+
 
 License Cap:    ANSYS CFX Solver (Max 512K Nodes)
 License ID:     DESKTOP-77TRS1E-user-8204-009249


 +--------------------------------------------------------------------+
 |        Memory Allocated for Run  (Actual usage may be less)        |
 +--------------------------------------------------------------------+

           | Real       | Integer    | Character | Logical  | Double
 ----------+------------+------------+-----------+----------+----------
 Mwords    |     129.33 |      27.43 |      3.75 |     0.12 |     0.01
 Mbytes    |     986.70 |     104.62 |      3.58 |     0.46 |     0.06
 ----------+------------+------------+-----------+----------+----------


 +--------------------------------------------------------------------+
 |                  Host Memory Information (Mbytes)                  |
 +--------------------------------------------------------------------+
 |          Host           |     System     |   Allocated    |   %    |
 +-------------------------+----------------+----------------+--------+
 | DESKTOP-77TRS1E         |      3536.69   |      1095.42   |  30.97 |
 +-------------------------+----------------+----------------+--------+


 +--------------------------------------------------------------------+
 |                     ****** Notice ******                           |
 | The Wall Heat Transfer Coefficient written to the results file for |
 | any turbulent phase with heat transfer is based on the turbulent   |
 | wall function coefficient. It is consistent with the Wall Heat Flux|
 | the wall temperature, and the Wall Adjacent Temperature            |
 | (near-wall temperature).  If you would like it to be based on a    |
 | user-specified bulk temperature instead, please set the expert     |
 | parameter "tbulk for htc = <value>".                               |
 +--------------------------------------------------------------------+

 +--------------------------------------------------------------------+
 |                          Mesh Statistics                           |
 +--------------------------------------------------------------------+
 | Domain Name          | Orthog. Angle | Exp. Factor  | Aspect Ratio |
 +----------------------+---------------+--------------+--------------+
 |                      | Minimum [deg] |   Maximum    |    Maximum   |
 +----------------------+---------------+--------------+--------------+
 | Default Domain       |       51.8 OK |         1 OK |         5 OK |
 +----------------------+---------------+--------------+--------------+
 |                      |  %!  %ok  %OK | %!  %ok  %OK | %!  %ok  %OK |
 +----------------------+---------------+--------------+--------------+
 | Default Domain       |   0    0  100 |  0    0  100 |  0    0  100 |
 +----------------------+---------------+--------------+--------------+

 Domain Name : Default Domain

     Total Number of Nodes                                =      143157

     Total Number of Elements                             =      110400
         Total Number of Hexahedrons                      =      110400

     Total Number of Faces                                =       61352

 Domain Interface Name : Default Fluid Fluid Interface

     Discretization type                                  =         GGI
     Intersection type                                    =      Direct
     Non-overlap area fraction on side 1                  =    0.00E+00
     Non-overlap area fraction on side 2                  =    0.00E+00

 +--------------------------------------------------------------------+
 |                   Reference Pressure Information                   |
 +--------------------------------------------------------------------+

 Domain Group: Default Domain
  
   Pressure has not been set at any boundary conditions.
   The pressure will be set to  0.00000E+00 at the following location:
   Domain      : Default Domain
   Node        :        1 (equation         1)
   Coordinates : ( 1.99496E+00,-3.57993E-02,-5.28233E-03).

 +--------------------------------------------------------------------+
 |                     Average Scale Information                      |
 +--------------------------------------------------------------------+

 Domain Name : Default Domain
     Global Length                                         = 2.0901E-01
     Minimum Extent                                        = 1.2620E-01
     Maximum Extent                                        = 2.0000E+00
     Density                                               = 1.1385E+00
     Dynamic Viscosity                                     = 1.8310E-05
     Velocity                                              = 4.0500E+01
     Advection Time                                        = 5.1607E-03
     Reynolds Number                                       = 5.2632E+05
     Speed of Sound                                        = 3.5302E+02
     Mach Number                                           = 1.1472E-01
     Thermal Conductivity                                  = 2.6100E-02
     Specific Heat Capacity at Constant Pressure           = 1.0044E+03
     Specific Heat Capacity at Constant Volume             = 7.1730E+02
     Specific Heat Ratio                                   = 1.4003E+00
     Prandtl Number                                        = 7.0462E-01

 +--------------------------------------------------------------------+
 |                Checking for Isolated Fluid Regions                 |
 +--------------------------------------------------------------------+
 
 No isolated fluid regions were found.

 +--------------------------------------------------------------------+
 |              The Equations Solved in This Calculation              |
 +--------------------------------------------------------------------+

 Subsystem : Momentum and Mass

   U-Mom
   V-Mom
   W-Mom
   P-Mass

 Subsystem : Heat Transfer

   H-Energy

 Subsystem : TurbKE and Diss.K

   K-TurbKE
   E-Diss.K
                   
 CFD Solver started: Mon May 03 19:05:10 2021


 +--------------------------------------------------------------------+
 |                       Convergence History                          |
 +--------------------------------------------------------------------+

 ======================================================================
 |                        Timescale Information                       |
 ----------------------------------------------------------------------
 |       Equation       |         Type          |      Timescale      |
 +----------------------+-----------------------+---------------------+
 | U-Mom                | Auto Timescale        |     1.54822E-03     |
 | V-Mom                | Auto Timescale        |     1.54822E-03     |
 | W-Mom                | Auto Timescale        |     1.54822E-03     |
 | P-Mass               | Auto Timescale        |     1.54822E-03     |
 +----------------------+-----------------------+---------------------+
 | H-Energy             | Auto Timescale        |     1.54822E-03     |
 +----------------------+-----------------------+---------------------+
 | K-TurbKE             | Auto Timescale        |     1.54822E-03     |
 | E-Diss.K             | Auto Timescale        |     1.54822E-03     |
 +----------------------+-----------------------+---------------------+

 ======================================================================
 OUTER LOOP ITERATION =    1                    CPU SECONDS = 1.242E+01
 ----------------------------------------------------------------------
 |       Equation       | Rate | RMS Res | Max Res |  Linear Solution |
 +----------------------+------+---------+---------+------------------+
 | U-Mom                | 0.00 | 1.9E-03 | 1.1E-02 |       8.5E-02  OK|
 | V-Mom                | 0.00 | 2.0E-05 | 1.5E-04 |       3.8E+00  ok|
 | W-Mom                | 0.00 | 2.0E-05 | 1.5E-04 |       4.3E+00  ok|
 | P-Mass               | 0.00 | 7.6E-04 | 4.4E-03 |  8.8  6.2E-02  OK|
 +----------------------+------+---------+---------+------------------+
 | H-Energy             | 0.00 | 4.7E-02 | 9.6E-01 |  5.8  1.1E-04  OK|
 +----------------------+------+---------+---------+------------------+
 | K-TurbKE             | 0.00 | 8.6E-02 | 2.0E-01 |  5.8  9.7E-07  OK|
 | E-Diss.K             | 0.00 | 1.3E-01 | 7.8E-01 |  7.4  7.0E-08  OK|
 +----------------------+------+---------+---------+------------------+

 ======================================================================
 OUTER LOOP ITERATION =    2                    CPU SECONDS = 4.321E+01
 ----------------------------------------------------------------------
 |       Equation       | Rate | RMS Res | Max Res |  Linear Solution |
 +----------------------+------+---------+---------+------------------+
 | U-Mom                | 3.40 | 6.5E-03 | 1.3E-02 |       1.0E-03  OK|
 | V-Mom                |25.03 | 5.1E-04 | 2.2E-03 |       4.7E-02  OK|
 | W-Mom                |25.78 | 5.2E-04 | 2.6E-03 |       6.7E-02  OK|
 | P-Mass               | 0.23 | 1.8E-04 | 4.6E-03 | 16.7  1.6E-01  ok|
 +----------------------+------+---------+---------+------------------+
 | H-Energy             | 0.16 | 7.7E-03 | 5.9E-02 |  5.8  3.9E-05  OK|
 +----------------------+------+---------+---------+------------------+
 | K-TurbKE             | 0.27 | 2.4E-02 | 1.4E-01 |  5.8  6.6E-06  OK|
 | E-Diss.K             | 0.68 | 8.5E-02 | 6.5E-01 |  7.4  5.9E-07  OK|
 +----------------------+------+---------+---------+------------------+

 ======================================================================
 OUTER LOOP ITERATION =    3                    CPU SECONDS = 7.407E+01
 ----------------------------------------------------------------------
 |       Equation       | Rate | RMS Res | Max Res |  Linear Solution |
 +----------------------+------+---------+---------+------------------+
 | U-Mom                | 0.91 | 6.0E-03 | 1.3E-02 |       1.9E-03  OK|
 | V-Mom                | 0.28 | 1.4E-04 | 1.4E-03 |       3.3E-01  ok|
 | W-Mom                | 0.33 | 1.7E-04 | 3.6E-03 |       4.8E-01  ok|
 | P-Mass               | 0.91 | 1.6E-04 | 4.2E-03 | 16.7  2.0E-01  ok|
 +----------------------+------+---------+---------+------------------+
 | H-Energy             | 0.64 | 5.0E-03 | 2.5E-02 |  5.8  1.2E-05  OK|
 +----------------------+------+---------+---------+------------------+
 | K-TurbKE             | 0.71 | 1.7E-02 | 9.4E-02 |  5.8  3.0E-06  OK|
 | E-Diss.K             | 0.69 | 5.9E-02 | 4.1E-01 |  7.4  7.4E-07  OK|
 +----------------------+------+---------+---------+------------------+

 ======================================================================
 OUTER LOOP ITERATION =    4                    CPU SECONDS = 1.048E+02
 ----------------------------------------------------------------------
 |       Equation       | Rate | RMS Res | Max Res |  Linear Solution |
 +----------------------+------+---------+---------+------------------+
 | U-Mom                | 0.85 | 5.1E-03 | 2.0E-02 |       1.7E-03  OK|
 | V-Mom                | 0.59 | 8.4E-05 | 1.2E-03 |       6.5E-01  ok|
 | W-Mom                | 0.83 | 1.4E-04 | 4.3E-03 |       8.7E-01  ok|
 | P-Mass               | 0.87 | 1.4E-04 | 3.3E-03 | 20.6  2.1E-01  ok|
 +----------------------+------+---------+---------+------------------+
 | H-Energy             | 0.79 | 3.9E-03 | 2.2E-02 |  5.8  6.4E-05  OK|
 +----------------------+------+---------+---------+------------------+
 | K-TurbKE             | 0.55 | 9.3E-03 | 1.1E-01 |  5.8  5.6E-06  OK|
 | E-Diss.K             | 0.92 | 5.4E-02 | 5.9E-01 |  7.4  1.1E-06  OK|
 +----------------------+------+---------+---------+------------------+

 ======================================================================
 OUTER LOOP ITERATION =    5                    CPU SECONDS = 1.364E+02
 ----------------------------------------------------------------------
 |       Equation       | Rate | RMS Res | Max Res |  Linear Solution |
 +----------------------+------+---------+---------+------------------+
 | U-Mom                | 0.81 | 4.2E-03 | 1.8E-02 |       1.5E-03  OK|
 | V-Mom                | 0.82 | 7.0E-05 | 1.4E-03 |       3.1E-01  ok|
 | W-Mom                | 0.92 | 1.3E-04 | 5.1E-03 |       2.8E-01  ok|
 | P-Mass               | 0.79 | 1.1E-04 | 2.6E-03 | 20.6  7.5E-02  OK|
 +----------------------+------+---------+---------+------------------+
 | H-Energy             | 1.34 | 5.3E-03 | 1.0E-01 |  5.8  1.8E-04  OK|
 +----------------------+------+---------+---------+------------------+
 | K-TurbKE             | 0.97 | 9.0E-03 | 1.0E-01 |  5.8  1.6E-05  OK|
 | E-Diss.K             | 0.92 | 4.9E-02 | 7.9E-01 |  7.4  2.1E-06  OK|
 +----------------------+------+---------+---------+------------------+

 ======================================================================
 |                        Timescale Information                       |
 ----------------------------------------------------------------------
 |       Equation       |         Type          |      Timescale      |
 +----------------------+-----------------------+---------------------+
 | U-Mom                | Auto Timescale        |     2.01978E-04     |
 | V-Mom                | Auto Timescale        |     2.01978E-04     |
 | W-Mom                | Auto Timescale        |     2.01978E-04     |
 | P-Mass               | Auto Timescale        |     2.01978E-04     |
 +----------------------+-----------------------+---------------------+
 | H-Energy             | Auto Timescale        |     2.01978E-04     |
 +----------------------+-----------------------+---------------------+
 | K-TurbKE             | Auto Timescale        |     2.01978E-04     |
 | E-Diss.K             | Auto Timescale        |     2.01978E-04     |
 +----------------------+-----------------------+---------------------+

 ======================================================================
 OUTER LOOP ITERATION =    6                    CPU SECONDS = 1.682E+02
 ----------------------------------------------------------------------
 |       Equation       | Rate | RMS Res | Max Res |  Linear Solution |
 +----------------------+------+---------+---------+------------------+
 | U-Mom                | 1.02 | 4.2E-03 | 2.0E-02 |       8.2E-03  OK|
 | V-Mom                | 0.73 | 5.1E-05 | 5.9E-04 |       3.8E-01  ok|
 | W-Mom                | 0.44 | 5.6E-05 | 1.5E-03 |       3.9E-01  ok|
 | P-Mass               | 1.13 | 1.3E-04 | 3.2E-03 |  4.9  6.7E-02  OK|
 +----------------------+------+---------+---------+------------------+
 | H-Energy             | 2.53 | 1.3E-02 | 1.1E-01 |  5.8  1.9E-05  OK|
 +----------------------+------+---------+---------+------------------+
 | K-TurbKE             | 1.85 | 1.7E-02 | 1.0E-01 |  5.8  2.5E-06  OK|
 | E-Diss.K             | 0.82 | 4.0E-02 | 3.9E-01 |  7.4  4.5E-07  OK|
 +----------------------+------+---------+---------+------------------+

 ======================================================================
 OUTER LOOP ITERATION =    7                    CPU SECONDS = 1.960E+02
 ----------------------------------------------------------------------
 |       Equation       | Rate | RMS Res | Max Res |  Linear Solution |
 +----------------------+------+---------+---------+------------------+
 | U-Mom                | 0.92 | 3.9E-03 | 1.6E-02 |       8.1E-03  OK|
 | V-Mom                | 0.98 | 5.0E-05 | 3.3E-04 |       2.4E-01  ok|
 | W-Mom                | 0.90 | 5.0E-05 | 6.7E-04 |       2.5E-01  ok|
 | P-Mass               | 0.51 | 6.5E-05 | 1.4E-03 |  4.9  5.1E-02  OK|
 +----------------------+------+---------+---------+------------------+
 | H-Energy             | 0.75 | 9.9E-03 | 5.9E-02 |  5.8  2.2E-05  OK|
 +----------------------+------+---------+---------+------------------+
 | K-TurbKE             | 0.78 | 1.3E-02 | 8.0E-02 |  5.8  5.2E-06  OK|
 | E-Diss.K             | 0.69 | 2.8E-02 | 2.0E-01 |  7.4  7.9E-07  OK|
 +----------------------+------+---------+---------+------------------+

 ======================================================================
 OUTER LOOP ITERATION =    8                    CPU SECONDS = 2.239E+02
 ----------------------------------------------------------------------
 |       Equation       | Rate | RMS Res | Max Res |  Linear Solution |
 +----------------------+------+---------+---------+------------------+
 | U-Mom                | 0.86 | 3.3E-03 | 1.2E-02 |       7.6E-03  OK|
 | V-Mom                | 0.90 | 4.5E-05 | 4.5E-04 |       2.4E-01  ok|
 | W-Mom                | 0.88 | 4.5E-05 | 4.8E-04 |       2.4E-01  ok|
 | P-Mass               | 0.72 | 4.7E-05 | 5.5E-04 |  4.9  6.5E-02  OK|
 +----------------------+------+---------+---------+------------------+
 | H-Energy             | 0.67 | 6.6E-03 | 5.1E-02 |  5.8  2.2E-05  OK|
 +----------------------+------+---------+---------+------------------+
 | K-TurbKE             | 0.86 | 1.1E-02 | 7.8E-02 |  5.8  1.0E-05  OK|
 | E-Diss.K             | 0.58 | 1.6E-02 | 1.2E-01 |  7.4  2.7E-06  OK|
 +----------------------+------+---------+---------+------------------+

 ======================================================================
 OUTER LOOP ITERATION =    9                    CPU SECONDS = 2.515E+02
 ----------------------------------------------------------------------
 |       Equation       | Rate | RMS Res | Max Res |  Linear Solution |
 +----------------------+------+---------+---------+------------------+
 | U-Mom                | 0.88 | 2.9E-03 | 9.0E-03 |       6.9E-03  OK|
 | V-Mom                | 0.89 | 4.0E-05 | 6.4E-04 |       2.5E-01  ok|
 | W-Mom                | 0.89 | 3.9E-05 | 6.9E-04 |       2.5E-01  ok|
 | P-Mass               | 0.95 | 4.4E-05 | 3.4E-04 |  4.9  7.2E-02  OK|
 +----------------------+------+---------+---------+------------------+
 | H-Energy             | 0.84 | 5.5E-03 | 7.1E-02 |  5.8  2.2E-05  OK|
 +----------------------+------+---------+---------+------------------+
 | K-TurbKE             | 0.90 | 1.0E-02 | 6.2E-02 |  5.8  2.1E-05  OK|
 | E-Diss.K             | 0.66 | 1.1E-02 | 8.9E-02 |  7.4  6.6E-06  OK|
 +----------------------+------+---------+---------+------------------+

 ======================================================================
 OUTER LOOP ITERATION =   10                    CPU SECONDS = 2.800E+02
 ----------------------------------------------------------------------
 |       Equation       | Rate | RMS Res | Max Res |  Linear Solution |
 +----------------------+------+---------+---------+------------------+
 | U-Mom                | 0.91 | 2.7E-03 | 7.6E-03 |       6.0E-03  OK|
 | V-Mom                | 0.88 | 3.6E-05 | 7.5E-04 |       2.7E-01  ok|
 | W-Mom                | 0.87 | 3.4E-05 | 7.9E-04 |       2.7E-01  ok|
 | P-Mass               | 1.01 | 4.5E-05 | 2.8E-04 |  4.9  6.7E-02  OK|
 +----------------------+------+---------+---------+------------------+
 | H-Energy             | 1.00 | 5.5E-03 | 8.5E-02 |  5.8  3.4E-05  OK|
 +----------------------+------+---------+---------+------------------+
 | K-TurbKE             | 0.88 | 8.8E-03 | 4.5E-02 |  5.8  4.6E-05  OK|
 | E-Diss.K             | 0.75 | 8.0E-03 | 8.8E-02 |  7.4  1.3E-05  OK|
 +----------------------+------+---------+---------+------------------+

 ======================================================================
 |                        Timescale Information                       |
 ----------------------------------------------------------------------
 |       Equation       |         Type          |      Timescale      |
 +----------------------+-----------------------+---------------------+
 | U-Mom                | Auto Timescale        |     2.02509E-04     |
 | V-Mom                | Auto Timescale        |     2.02509E-04     |
 | W-Mom                | Auto Timescale        |     2.02509E-04     |
 | P-Mass               | Auto Timescale        |     2.02509E-04     |
 +----------------------+-----------------------+---------------------+
 | H-Energy             | Auto Timescale        |     2.02509E-04     |
 +----------------------+-----------------------+---------------------+
 | K-TurbKE             | Auto Timescale        |     2.02509E-04     |
 | E-Diss.K             | Auto Timescale        |     2.02509E-04     |
 +----------------------+-----------------------+---------------------+

 ======================================================================
 OUTER LOOP ITERATION =   11                    CPU SECONDS = 3.080E+02
 ----------------------------------------------------------------------
 |       Equation       | Rate | RMS Res | Max Res |  Linear Solution |
 +----------------------+------+---------+---------+------------------+
 | U-Mom                | 0.92 | 2.5E-03 | 6.8E-03 |       5.3E-03  OK|
 | V-Mom                | 0.89 | 3.2E-05 | 7.4E-04 |       2.8E-01  ok|
 | W-Mom                | 0.89 | 3.0E-05 | 6.9E-04 |       2.9E-01  ok|
 | P-Mass               | 1.02 | 4.6E-05 | 2.8E-04 |  4.9  6.1E-02  OK|
 +----------------------+------+---------+---------+------------------+
 | H-Energy             | 1.04 | 5.7E-03 | 9.2E-02 |  5.8  6.0E-05  OK|
 +----------------------+------+---------+---------+------------------+
 | K-TurbKE             | 0.85 | 7.5E-03 | 3.7E-02 |  5.8  8.4E-05  OK|
 | E-Diss.K             | 0.78 | 6.2E-03 | 7.9E-02 |  7.4  2.5E-05  OK|
 +----------------------+------+---------+---------+------------------+

 ======================================================================
 OUTER LOOP ITERATION =   12                    CPU SECONDS = 3.360E+02
 ----------------------------------------------------------------------
 |       Equation       | Rate | RMS Res | Max Res |  Linear Solution |
 +----------------------+------+---------+---------+------------------+
 | U-Mom                | 0.93 | 2.3E-03 | 6.1E-03 |       4.9E-03  OK|
 | V-Mom                | 0.88 | 2.8E-05 | 6.0E-04 |       3.1E-01  ok|
 | W-Mom                | 0.90 | 2.7E-05 | 5.9E-04 |       3.1E-01  ok|
 | P-Mass               | 1.03 | 4.7E-05 | 3.0E-04 |  4.9  5.6E-02  OK|
 +----------------------+------+---------+---------+------------------+
 | H-Energy             | 0.88 | 5.0E-03 | 7.6E-02 |  5.8  7.7E-05  OK|
 +----------------------+------+---------+---------+------------------+
 | K-TurbKE             | 0.82 | 6.2E-03 | 3.2E-02 |  5.8  1.3E-04  OK|
 | E-Diss.K             | 0.86 | 5.4E-03 | 6.8E-02 |  7.4  4.0E-05  OK|
 +----------------------+------+---------+---------+------------------+

 ======================================================================
 OUTER LOOP ITERATION =   13                    CPU SECONDS = 3.637E+02
 ----------------------------------------------------------------------
 |       Equation       | Rate | RMS Res | Max Res |  Linear Solution |
 +----------------------+------+---------+---------+------------------+
 | U-Mom                | 0.94 | 2.2E-03 | 5.5E-03 |       4.9E-03  OK|
 | V-Mom                | 0.88 | 2.5E-05 | 4.2E-04 |       3.4E-01  ok|
 | W-Mom                | 0.89 | 2.4E-05 | 5.1E-04 |       3.4E-01  ok|
 | P-Mass               | 1.03 | 4.8E-05 | 3.2E-04 |  4.9  5.3E-02  OK|
 +----------------------+------+---------+---------+------------------+
 | H-Energy             | 0.89 | 4.5E-03 | 5.8E-02 |  5.8  6.8E-05  OK|
 +----------------------+------+---------+---------+------------------+
 | K-TurbKE             | 0.81 | 5.0E-03 | 2.5E-02 |  5.8  1.6E-04  OK|
 | E-Diss.K             | 1.00 | 5.4E-03 | 6.1E-02 |  7.4  5.8E-05  OK|
 +----------------------+------+---------+---------+------------------+

 ======================================================================
 OUTER LOOP ITERATION =   14                    CPU SECONDS = 3.916E+02
 ----------------------------------------------------------------------
 |       Equation       | Rate | RMS Res | Max Res |  Linear Solution |
 +----------------------+------+---------+---------+------------------+
 | U-Mom                | 0.94 | 2.0E-03 | 4.9E-03 |       5.0E-03  OK|
 | V-Mom                | 0.89 | 2.2E-05 | 3.4E-04 |       3.7E-01  ok|
 | W-Mom                | 0.89 | 2.2E-05 | 4.0E-04 |       3.7E-01  ok|
 | P-Mass               | 1.02 | 5.0E-05 | 3.4E-04 |  4.9  5.1E-02  OK|
 +----------------------+------+---------+---------+------------------+
 | H-Energy             | 0.93 | 4.2E-03 | 4.5E-02 |  5.8  5.4E-05  OK|
 +----------------------+------+---------+---------+------------------+
 | K-TurbKE             | 0.82 | 4.1E-03 | 2.4E-02 |  5.8  1.9E-04  OK|
 | E-Diss.K             | 1.09 | 5.9E-03 | 5.7E-02 |  7.4  7.7E-05  OK|
 +----------------------+------+---------+---------+------------------+

 ======================================================================
 OUTER LOOP ITERATION =   15                    CPU SECONDS = 4.197E+02
 ----------------------------------------------------------------------
 |       Equation       | Rate | RMS Res | Max Res |  Linear Solution |
 +----------------------+------+---------+---------+------------------+
 | U-Mom                | 0.95 | 1.9E-03 | 4.3E-03 |       5.1E-03  OK|
 | V-Mom                | 0.91 | 2.0E-05 | 3.0E-04 |       4.0E-01  ok|
 | W-Mom                | 0.91 | 2.0E-05 | 3.2E-04 |       4.0E-01  ok|
 | P-Mass               | 1.02 | 5.0E-05 | 3.5E-04 |  4.9  4.8E-02  OK|
 +----------------------+------+---------+---------+------------------+
 | H-Energy             | 0.94 | 3.9E-03 | 3.5E-02 |  5.8  7.0E-05  OK|
 +----------------------+------+---------+---------+------------------+
 | K-TurbKE             | 0.85 | 3.5E-03 | 2.2E-02 |  5.8  2.2E-04  OK|
 | E-Diss.K             | 1.10 | 6.4E-03 | 5.5E-02 |  7.4  9.3E-05  OK|
 +----------------------+------+---------+---------+------------------+

 ======================================================================
 |                        Timescale Information                       |
 ----------------------------------------------------------------------
 |       Equation       |         Type          |      Timescale      |
 +----------------------+-----------------------+---------------------+
 | U-Mom                | Auto Timescale        |     2.03129E-04     |
 | V-Mom                | Auto Timescale        |     2.03129E-04     |
 | W-Mom                | Auto Timescale        |     2.03129E-04     |
 | P-Mass               | Auto Timescale        |     2.03129E-04     |
 +----------------------+-----------------------+---------------------+
 | H-Energy             | Auto Timescale        |     2.03129E-04     |
 +----------------------+-----------------------+---------------------+
 | K-TurbKE             | Auto Timescale        |     2.03129E-04     |
 | E-Diss.K             | Auto Timescale        |     2.03129E-04     |
 +----------------------+-----------------------+---------------------+

 ======================================================================
 OUTER LOOP ITERATION =   16                    CPU SECONDS = 4.478E+02
 ----------------------------------------------------------------------
 |       Equation       | Rate | RMS Res | Max Res |  Linear Solution |
 +----------------------+------+---------+---------+------------------+
 | U-Mom                | 0.95 | 1.8E-03 | 4.0E-03 |       5.3E-03  OK|
 | V-Mom                | 0.92 | 1.9E-05 | 2.6E-04 |       4.1E-01  ok|
 | W-Mom                | 0.92 | 1.8E-05 | 3.2E-04 |       4.2E-01  ok|
 | P-Mass               | 1.01 | 5.1E-05 | 3.4E-04 |  4.9  4.7E-02  OK|
 +----------------------+------+---------+---------+------------------+
 | H-Energy             | 0.95 | 3.7E-03 | 2.6E-02 |  5.8  1.1E-04  OK|
 +----------------------+------+---------+---------+------------------+
 | K-TurbKE             | 0.90 | 3.1E-03 | 2.0E-02 |  5.8  2.6E-04  OK|
 | E-Diss.K             | 1.09 | 7.0E-03 | 5.5E-02 |  7.4  8.8E-05  OK|
 +----------------------+------+---------+---------+------------------+

 ======================================================================
 OUTER LOOP ITERATION =   17                    CPU SECONDS = 4.756E+02
 ----------------------------------------------------------------------
 |       Equation       | Rate | RMS Res | Max Res |  Linear Solution |
 +----------------------+------+---------+---------+------------------+
 | U-Mom                | 0.95 | 1.7E-03 | 3.9E-03 |       5.5E-03  OK|
 | V-Mom                | 0.93 | 1.7E-05 | 2.2E-04 |       4.2E-01  ok|
 | W-Mom                | 0.94 | 1.7E-05 | 2.9E-04 |       4.4E-01  ok|
 | P-Mass               | 1.00 | 5.1E-05 | 3.4E-04 |  4.9  4.6E-02  OK|
 +----------------------+------+---------+---------+------------------+
 | H-Energy             | 0.95 | 3.6E-03 | 2.2E-02 |  5.8  1.5E-04  OK|
 +----------------------+------+---------+---------+------------------+
 | K-TurbKE             | 0.95 | 3.0E-03 | 1.9E-02 |  5.8  3.2E-04  OK|
 | E-Diss.K             | 1.06 | 7.4E-03 | 5.5E-02 |  7.4  7.2E-05  OK|
 +----------------------+------+---------+---------+------------------+

 ======================================================================
 OUTER LOOP ITERATION =   18                    CPU SECONDS = 5.035E+02
 ----------------------------------------------------------------------
 |       Equation       | Rate | RMS Res | Max Res |  Linear Solution |
 +----------------------+------+---------+---------+------------------+
 | U-Mom                | 0.95 | 1.7E-03 | 3.7E-03 |       5.7E-03  OK|
 | V-Mom                | 0.94 | 1.6E-05 | 2.1E-04 |       4.4E-01  ok|
 | W-Mom                | 0.94 | 1.6E-05 | 2.5E-04 |       4.5E-01  ok|
 | P-Mass               | 0.99 | 5.0E-05 | 3.3E-04 |  4.9  4.5E-02  OK|
 +----------------------+------+---------+---------+------------------+
 | H-Energy             | 0.96 | 3.4E-03 | 1.9E-02 |  5.8  1.9E-04  OK|
 +----------------------+------+---------+---------+------------------+
 | K-TurbKE             | 0.98 | 2.9E-03 | 1.7E-02 |  5.8  3.8E-04  OK|
 | E-Diss.K             | 1.05 | 7.8E-03 | 5.4E-02 |  7.4  6.3E-05  OK|
 +----------------------+------+---------+---------+------------------+

 ======================================================================
 OUTER LOOP ITERATION =   19                    CPU SECONDS = 5.315E+02
 ----------------------------------------------------------------------
 |       Equation       | Rate | RMS Res | Max Res |  Linear Solution |
 +----------------------+------+---------+---------+------------------+
 | U-Mom                | 0.96 | 1.6E-03 | 3.5E-03 |       5.9E-03  OK|
 | V-Mom                | 0.95 | 1.6E-05 | 1.9E-04 |       4.5E-01  ok|
 | W-Mom                | 0.95 | 1.5E-05 | 2.5E-04 |       4.6E-01  ok|
 | P-Mass               | 0.99 | 5.0E-05 | 3.2E-04 |  4.9  4.5E-02  OK|
 +----------------------+------+---------+---------+------------------+
 | H-Energy             | 0.96 | 3.3E-03 | 1.7E-02 |  5.8  2.4E-04  OK|
 +----------------------+------+---------+---------+------------------+
 | K-TurbKE             | 1.00 | 2.9E-03 | 1.5E-02 |  5.8  4.5E-04  OK|
 | E-Diss.K             | 1.03 | 8.1E-03 | 5.6E-02 |  7.4  6.2E-05  OK|
 +----------------------+------+---------+---------+------------------+

 ======================================================================
 OUTER LOOP ITERATION =   20                    CPU SECONDS = 5.594E+02
 ----------------------------------------------------------------------
 |       Equation       | Rate | RMS Res | Max Res |  Linear Solution |
 +----------------------+------+---------+---------+------------------+
 | U-Mom                | 0.96 | 1.5E-03 | 3.3E-03 |       6.0E-03  OK|
 | V-Mom                | 0.96 | 1.5E-05 | 1.7E-04 |       4.6E-01  ok|
 | W-Mom                | 0.96 | 1.5E-05 | 2.3E-04 |       4.8E-01  ok|
 | P-Mass               | 0.99 | 4.9E-05 | 3.1E-04 |  4.9  4.5E-02  OK|
 +----------------------+------+---------+---------+------------------+
 | H-Energy             | 0.96 | 3.1E-03 | 1.4E-02 |  5.8  3.0E-04  OK|
 +----------------------+------+---------+---------+------------------+
 | K-TurbKE             | 0.99 | 2.9E-03 | 1.4E-02 |  5.8  5.1E-04  OK|
 | E-Diss.K             | 1.02 | 8.2E-03 | 5.7E-02 |  7.4  6.5E-05  OK|
 +----------------------+------+---------+---------+------------------+

 ======================================================================
 |                        Timescale Information                       |
 ----------------------------------------------------------------------
 |       Equation       |         Type          |      Timescale      |
 +----------------------+-----------------------+---------------------+
 | U-Mom                | Auto Timescale        |     2.03833E-04     |
 | V-Mom                | Auto Timescale        |     2.03833E-04     |
 | W-Mom                | Auto Timescale        |     2.03833E-04     |
 | P-Mass               | Auto Timescale        |     2.03833E-04     |
 +----------------------+-----------------------+---------------------+
 | H-Energy             | Auto Timescale        |     2.03833E-04     |
 +----------------------+-----------------------+---------------------+
 | K-TurbKE             | Auto Timescale        |     2.03833E-04     |
 | E-Diss.K             | Auto Timescale        |     2.03833E-04     |
 +----------------------+-----------------------+---------------------+

 ======================================================================
 OUTER LOOP ITERATION =   21                    CPU SECONDS = 5.874E+02
 ----------------------------------------------------------------------
 |       Equation       | Rate | RMS Res | Max Res |  Linear Solution |
 +----------------------+------+---------+---------+------------------+
 | U-Mom                | 0.96 | 1.5E-03 | 3.0E-03 |       6.2E-03  OK|
 | V-Mom                | 0.96 | 1.4E-05 | 1.6E-04 |       4.8E-01  ok|
 | W-Mom                | 0.96 | 1.4E-05 | 2.0E-04 |       4.9E-01  ok|
 | P-Mass               | 0.99 | 4.9E-05 | 3.0E-04 |  4.9  4.6E-02  OK|
 +----------------------+------+---------+---------+------------------+
 | H-Energy             | 0.96 | 3.0E-03 | 1.3E-02 |  5.8  3.6E-04  OK|
 +----------------------+------+---------+---------+------------------+
 | K-TurbKE             | 0.99 | 2.9E-03 | 1.2E-02 |  5.8  5.9E-04  OK|
 | E-Diss.K             | 1.01 | 8.4E-03 | 5.8E-02 |  7.4  7.1E-05  OK|
 +----------------------+------+---------+---------+------------------+

 ======================================================================
 OUTER LOOP ITERATION =   22                    CPU SECONDS = 6.153E+02
 ----------------------------------------------------------------------
 |       Equation       | Rate | RMS Res | Max Res |  Linear Solution |
 +----------------------+------+---------+---------+------------------+
 | U-Mom                | 0.96 | 1.4E-03 | 2.6E-03 |       6.4E-03  OK|
 | V-Mom                | 0.96 | 1.4E-05 | 1.5E-04 |       5.0E-01  ok|
 | W-Mom                | 0.96 | 1.4E-05 | 1.9E-04 |       5.1E-01  ok|
 | P-Mass               | 0.99 | 4.8E-05 | 2.9E-04 |  4.9  4.7E-02  OK|
 +----------------------+------+---------+---------+------------------+
 | H-Energy             | 0.97 | 2.9E-03 | 1.2E-02 |  5.8  4.3E-04  OK|
 +----------------------+------+---------+---------+------------------+
 | K-TurbKE             | 0.98 | 2.8E-03 | 1.2E-02 |  5.8  6.6E-04  OK|
 | E-Diss.K             | 1.01 | 8.4E-03 | 5.8E-02 |  7.4  7.9E-05  OK|
 +----------------------+------+---------+---------+------------------+

 ======================================================================
 OUTER LOOP ITERATION =   23                    CPU SECONDS = 6.431E+02
 ----------------------------------------------------------------------
 |       Equation       | Rate | RMS Res | Max Res |  Linear Solution |
 +----------------------+------+---------+---------+------------------+
 | U-Mom                | 0.96 | 1.3E-03 | 2.4E-03 |       6.6E-03  OK|
 | V-Mom                | 0.97 | 1.3E-05 | 1.3E-04 |       5.2E-01  ok|
 | W-Mom                | 0.97 | 1.3E-05 | 1.5E-04 |       5.3E-01  ok|
 | P-Mass               | 1.00 | 4.8E-05 | 2.8E-04 |  4.9  4.8E-02  OK|
 +----------------------+------+---------+---------+------------------+
 | H-Energy             | 0.97 | 2.8E-03 | 1.3E-02 |  5.8  5.0E-04  OK|
 +----------------------+------+---------+---------+------------------+
 | K-TurbKE             | 0.98 | 2.7E-03 | 1.2E-02 |  5.8  7.3E-04  OK|
 | E-Diss.K             | 1.00 | 8.4E-03 | 5.7E-02 |  7.4  8.8E-05  OK|
 +----------------------+------+---------+---------+------------------+

 ======================================================================
 OUTER LOOP ITERATION =   24                    CPU SECONDS = 6.709E+02
 ----------------------------------------------------------------------
 |       Equation       | Rate | RMS Res | Max Res |  Linear Solution |
 +----------------------+------+---------+---------+------------------+
 | U-Mom                | 0.96 | 1.3E-03 | 2.2E-03 |       6.8E-03  OK|
 | V-Mom                | 0.97 | 1.3E-05 | 1.1E-04 |       5.4E-01  ok|
 | W-Mom                | 0.97 | 1.3E-05 | 1.2E-04 |       5.6E-01  ok|
 | P-Mass               | 1.00 | 4.8E-05 | 2.7E-04 |  4.9  5.1E-02  OK|
 +----------------------+------+---------+---------+------------------+
 | H-Energy             | 0.96 | 2.7E-03 | 1.2E-02 |  5.8  5.6E-04  OK|
 +----------------------+------+---------+---------+------------------+
 | K-TurbKE             | 0.97 | 2.7E-03 | 1.2E-02 |  5.8  8.0E-04  OK|
 | E-Diss.K             | 0.99 | 8.3E-03 | 5.7E-02 |  7.4  9.7E-05  OK|
 +----------------------+------+---------+---------+------------------+

 ======================================================================
 OUTER LOOP ITERATION =   25                    CPU SECONDS = 6.988E+02
 ----------------------------------------------------------------------
 |       Equation       | Rate | RMS Res | Max Res |  Linear Solution |
 +----------------------+------+---------+---------+------------------+
 | U-Mom                | 0.96 | 1.2E-03 | 2.1E-03 |       7.0E-03  OK|
 | V-Mom                | 0.98 | 1.3E-05 | 9.7E-05 |       5.7E-01  ok|
 | W-Mom                | 0.98 | 1.2E-05 | 1.0E-04 |       5.9E-01  ok|
 | P-Mass               | 1.00 | 4.8E-05 | 2.6E-04 |  4.9  5.3E-02  OK|
 +----------------------+------+---------+---------+------------------+
 | H-Energy             | 0.94 | 2.6E-03 | 1.0E-02 |  5.8  6.3E-04  OK|
 +----------------------+------+---------+---------+------------------+
 | K-TurbKE             | 0.97 | 2.6E-03 | 1.1E-02 |  5.8  8.4E-04  OK|
 | E-Diss.K             | 0.99 | 8.3E-03 | 5.6E-02 |  7.4  1.1E-04  OK|
 +----------------------+------+---------+---------+------------------+

 ======================================================================
 |                        Timescale Information                       |
 ----------------------------------------------------------------------
 |       Equation       |         Type          |      Timescale      |
 +----------------------+-----------------------+---------------------+
 | U-Mom                | Auto Timescale        |     2.04606E-04     |
 | V-Mom                | Auto Timescale        |     2.04606E-04     |
 | W-Mom                | Auto Timescale        |     2.04606E-04     |
 | P-Mass               | Auto Timescale        |     2.04606E-04     |
 +----------------------+-----------------------+---------------------+
 | H-Energy             | Auto Timescale        |     2.04606E-04     |
 +----------------------+-----------------------+---------------------+
 | K-TurbKE             | Auto Timescale        |     2.04606E-04     |
 | E-Diss.K             | Auto Timescale        |     2.04606E-04     |
 +----------------------+-----------------------+---------------------+

 ======================================================================
 OUTER LOOP ITERATION =   26                    CPU SECONDS = 7.267E+02
 ----------------------------------------------------------------------
 |       Equation       | Rate | RMS Res | Max Res |  Linear Solution |
 +----------------------+------+---------+---------+------------------+
 | U-Mom                | 0.96 | 1.2E-03 | 2.1E-03 |       7.3E-03  OK|
 | V-Mom                | 0.98 | 1.2E-05 | 8.3E-05 |       6.0E-01  ok|
 | W-Mom                | 0.98 | 1.2E-05 | 8.8E-05 |       6.2E-01  ok|
 | P-Mass               | 1.01 | 4.8E-05 | 2.5E-04 |  4.9  5.7E-02  OK|
 +----------------------+------+---------+---------+------------------+
 | H-Energy             | 0.95 | 2.4E-03 | 8.9E-03 |  5.8  7.1E-04  OK|
 +----------------------+------+---------+---------+------------------+
 | K-TurbKE             | 0.97 | 2.5E-03 | 1.1E-02 |  5.8  8.8E-04  OK|
 | E-Diss.K             | 0.98 | 8.1E-03 | 5.5E-02 |  7.4  1.2E-04  OK|
 +----------------------+------+---------+---------+------------------+

 ======================================================================
 OUTER LOOP ITERATION =   27                    CPU SECONDS = 7.547E+02
 ----------------------------------------------------------------------
 |       Equation       | Rate | RMS Res | Max Res |  Linear Solution |
 +----------------------+------+---------+---------+------------------+
 | U-Mom                | 0.96 | 1.1E-03 | 2.0E-03 |       7.5E-03  OK|
 | V-Mom                | 0.99 | 1.2E-05 | 7.2E-05 |       6.2E-01  ok|
 | W-Mom                | 0.99 | 1.2E-05 | 7.6E-05 |       6.5E-01  ok|
 | P-Mass               | 1.01 | 4.9E-05 | 2.4E-04 |  4.9  6.0E-02  OK|
 +----------------------+------+---------+---------+------------------+
 | H-Energy             | 0.95 | 2.3E-03 | 8.4E-03 |  5.8  7.8E-04  OK|
 +----------------------+------+---------+---------+------------------+
 | K-TurbKE             | 0.97 | 2.4E-03 | 1.1E-02 |  5.8  8.9E-04  OK|
 | E-Diss.K             | 0.98 | 7.9E-03 | 5.3E-02 |  7.4  1.3E-04  OK|
 +----------------------+------+---------+---------+------------------+

 ======================================================================
 OUTER LOOP ITERATION =   28                    CPU SECONDS = 7.827E+02
 ----------------------------------------------------------------------
 |       Equation       | Rate | RMS Res | Max Res |  Linear Solution |
 +----------------------+------+---------+---------+------------------+
 | U-Mom                | 0.96 | 1.1E-03 | 1.9E-03 |       7.7E-03  OK|
 | V-Mom                | 0.99 | 1.2E-05 | 7.3E-05 |       6.5E-01  ok|
 | W-Mom                | 0.99 | 1.2E-05 | 7.4E-05 |       6.8E-01  ok|
 | P-Mass               | 1.01 | 4.9E-05 | 2.3E-04 |  4.9  6.4E-02  OK|
 +----------------------+------+---------+---------+------------------+
 | H-Energy             | 0.96 | 2.2E-03 | 8.6E-03 |  5.8  8.4E-04  OK|
 +----------------------+------+---------+---------+------------------+
 | K-TurbKE             | 0.97 | 2.4E-03 | 1.1E-02 |  5.8  9.0E-04  OK|
 | E-Diss.K             | 0.98 | 7.8E-03 | 5.2E-02 |  7.4  1.3E-04  OK|
 +----------------------+------+---------+---------+------------------+

 ======================================================================
 OUTER LOOP ITERATION =   29                    CPU SECONDS = 8.108E+02
 ----------------------------------------------------------------------
 |       Equation       | Rate | RMS Res | Max Res |  Linear Solution |
 +----------------------+------+---------+---------+------------------+
 | U-Mom                | 0.96 | 1.1E-03 | 1.8E-03 |       7.9E-03  OK|
 | V-Mom                | 0.99 | 1.2E-05 | 7.2E-05 |       6.7E-01  ok|
 | W-Mom                | 0.99 | 1.2E-05 | 7.4E-05 |       7.1E-01  ok|
 | P-Mass               | 1.01 | 4.9E-05 | 2.1E-04 |  4.9  6.7E-02  OK|
 +----------------------+------+---------+---------+------------------+
 | H-Energy             | 0.96 | 2.1E-03 | 8.5E-03 |  5.8  8.7E-04  OK|
 +----------------------+------+---------+---------+------------------+
 | K-TurbKE             | 0.97 | 2.3E-03 | 1.0E-02 |  5.8  9.1E-04  OK|
 | E-Diss.K             | 0.98 | 7.6E-03 | 5.1E-02 |  7.4  1.4E-04  OK|
 +----------------------+------+---------+---------+------------------+

 ======================================================================
 OUTER LOOP ITERATION =   30                    CPU SECONDS = 8.386E+02
 ----------------------------------------------------------------------
 |       Equation       | Rate | RMS Res | Max Res |  Linear Solution |
 +----------------------+------+---------+---------+------------------+
 | U-Mom                | 0.96 | 1.0E-03 | 1.7E-03 |       8.2E-03  OK|
 | V-Mom                | 0.99 | 1.2E-05 | 7.2E-05 |       7.0E-01  ok|
 | W-Mom                | 0.99 | 1.2E-05 | 7.3E-05 |       7.3E-01  ok|
 | P-Mass               | 1.00 | 5.0E-05 | 2.0E-04 |  4.9  7.1E-02  OK|
 +----------------------+------+---------+---------+------------------+
 | H-Energy             | 0.96 | 2.1E-03 | 7.3E-03 |  5.8  8.5E-04  OK|
 +----------------------+------+---------+---------+------------------+
 | K-TurbKE             | 0.97 | 2.2E-03 | 1.0E-02 |  5.8  9.2E-04  OK|
 | E-Diss.K             | 0.98 | 7.4E-03 | 5.0E-02 |  7.4  1.5E-04  OK|
 +----------------------+------+---------+---------+------------------+

 ======================================================================
 |                        Timescale Information                       |
 ----------------------------------------------------------------------
 |       Equation       |         Type          |      Timescale      |
 +----------------------+-----------------------+---------------------+
 | U-Mom                | Auto Timescale        |     2.05429E-04     |
 | V-Mom                | Auto Timescale        |     2.05429E-04     |
 | W-Mom                | Auto Timescale        |     2.05429E-04     |
 | P-Mass               | Auto Timescale        |     2.05429E-04     |
 +----------------------+-----------------------+---------------------+
 | H-Energy             | Auto Timescale        |     2.05429E-04     |
 +----------------------+-----------------------+---------------------+
 | K-TurbKE             | Auto Timescale        |     2.05429E-04     |
 | E-Diss.K             | Auto Timescale        |     2.05429E-04     |
 +----------------------+-----------------------+---------------------+

 ======================================================================
 OUTER LOOP ITERATION =   31                    CPU SECONDS = 8.666E+02
 ----------------------------------------------------------------------
 |       Equation       | Rate | RMS Res | Max Res |  Linear Solution |
 +----------------------+------+---------+---------+------------------+
 | U-Mom                | 0.96 | 9.8E-04 | 1.7E-03 |       8.4E-03  OK|
 | V-Mom                | 0.99 | 1.2E-05 | 7.4E-05 |       7.3E-01  ok|
 | W-Mom                | 0.99 | 1.1E-05 | 7.6E-05 |       7.6E-01  ok|
 | P-Mass               | 1.00 | 5.0E-05 | 1.9E-04 |  4.9  7.5E-02  OK|
 +----------------------+------+---------+---------+------------------+
 | H-Energy             | 0.96 | 2.0E-03 | 6.5E-03 |  5.8  7.8E-04  OK|
 +----------------------+------+---------+---------+------------------+
 | K-TurbKE             | 0.98 | 2.2E-03 | 1.0E-02 |  5.8  9.5E-04  OK|
 | E-Diss.K             | 0.98 | 7.3E-03 | 4.9E-02 |  7.4  1.6E-04  OK|
 +----------------------+------+---------+---------+------------------+

 ======================================================================
 OUTER LOOP ITERATION =   32                    CPU SECONDS = 8.947E+02
 ----------------------------------------------------------------------
 |       Equation       | Rate | RMS Res | Max Res |  Linear Solution |
 +----------------------+------+---------+---------+------------------+
 | U-Mom                | 0.96 | 9.4E-04 | 1.6E-03 |       8.7E-03  OK|
 | V-Mom                | 0.99 | 1.1E-05 | 7.7E-05 |       7.5E-01  ok|
 | W-Mom                | 0.99 | 1.1E-05 | 7.9E-05 |       7.8E-01  ok|
 | P-Mass               | 1.00 | 5.0E-05 | 1.9E-04 |  4.9  7.9E-02  OK|
 +----------------------+------+---------+---------+------------------+
 | H-Energy             | 0.96 | 1.9E-03 | 6.0E-03 |  5.8  6.3E-04  OK|
 +----------------------+------+---------+---------+------------------+
 | K-TurbKE             | 0.98 | 2.1E-03 | 9.9E-03 |  5.8  9.8E-04  OK|
 | E-Diss.K             | 0.98 | 7.1E-03 | 4.8E-02 |  7.4  1.7E-04  OK|
 +----------------------+------+---------+---------+------------------+

 ======================================================================
 OUTER LOOP ITERATION =   33                    CPU SECONDS = 9.225E+02
 ----------------------------------------------------------------------
 |       Equation       | Rate | RMS Res | Max Res |  Linear Solution |
 +----------------------+------+---------+---------+------------------+
 | U-Mom                | 0.96 | 9.0E-04 | 1.5E-03 |       8.9E-03  OK|
 | V-Mom                | 0.98 | 1.1E-05 | 7.8E-05 |       7.7E-01  ok|
 | W-Mom                | 0.99 | 1.1E-05 | 8.1E-05 |       8.0E-01  ok|
 | P-Mass               | 1.00 | 4.9E-05 | 1.9E-04 |  4.9  8.3E-02  OK|
 +----------------------+------+---------+---------+------------------+
 | H-Energy             | 0.96 | 1.8E-03 | 5.7E-03 |  5.8  4.6E-04  OK|
 +----------------------+------+---------+---------+------------------+
 | K-TurbKE             | 0.98 | 2.1E-03 | 9.7E-03 |  5.8  1.0E-03  OK|
 | E-Diss.K             | 0.98 | 7.0E-03 | 4.7E-02 |  7.4  1.8E-04  OK|
 +----------------------+------+---------+---------+------------------+

 ======================================================================
 OUTER LOOP ITERATION =   34                    CPU SECONDS = 9.505E+02
 ----------------------------------------------------------------------
 |       Equation       | Rate | RMS Res | Max Res |  Linear Solution |
 +----------------------+------+---------+---------+------------------+
 | U-Mom                | 0.96 | 8.7E-04 | 1.5E-03 |       9.2E-03  OK|
 | V-Mom                | 0.98 | 1.1E-05 | 7.8E-05 |       7.9E-01  ok|
 | W-Mom                | 0.99 | 1.1E-05 | 8.1E-05 |       8.2E-01  ok|
 | P-Mass               | 0.99 | 4.9E-05 | 2.0E-04 |  4.9  8.7E-02  OK|
 +----------------------+------+---------+---------+------------------+
 | H-Energy             | 0.96 | 1.7E-03 | 5.4E-03 |  5.8  3.2E-04  OK|
 +----------------------+------+---------+---------+------------------+
 | K-TurbKE             | 0.98 | 2.1E-03 | 9.5E-03 |  5.8  1.1E-03  OK|
 | E-Diss.K             | 0.98 | 6.9E-03 | 4.7E-02 |  7.4  1.9E-04  OK|
 +----------------------+------+---------+---------+------------------+

 ======================================================================
 OUTER LOOP ITERATION =   35                    CPU SECONDS = 9.785E+02
 ----------------------------------------------------------------------
 |       Equation       | Rate | RMS Res | Max Res |  Linear Solution |
 +----------------------+------+---------+---------+------------------+
 | U-Mom                | 0.96 | 8.4E-04 | 1.4E-03 |       9.4E-03  OK|
 | V-Mom                | 0.98 | 1.1E-05 | 7.8E-05 |       8.1E-01  ok|
 | W-Mom                | 0.99 | 1.1E-05 | 8.1E-05 |       8.4E-01  ok|
 | P-Mass               | 0.99 | 4.9E-05 | 2.0E-04 |  4.9  9.2E-02  OK|
 +----------------------+------+---------+---------+------------------+
 | H-Energy             | 0.96 | 1.7E-03 | 4.8E-03 |  5.8  2.9E-04  OK|
 +----------------------+------+---------+---------+------------------+
 | K-TurbKE             | 0.98 | 2.0E-03 | 9.4E-03 |  5.8  1.1E-03  OK|
 | E-Diss.K             | 0.98 | 6.8E-03 | 4.6E-02 |  7.4  2.0E-04  OK|
 +----------------------+------+---------+---------+------------------+

 ======================================================================
 |                        Timescale Information                       |
 ----------------------------------------------------------------------
 |       Equation       |         Type          |      Timescale      |
 +----------------------+-----------------------+---------------------+
 | U-Mom                | Auto Timescale        |     2.06301E-04     |
 | V-Mom                | Auto Timescale        |     2.06301E-04     |
 | W-Mom                | Auto Timescale        |     2.06301E-04     |
 | P-Mass               | Auto Timescale        |     2.06301E-04     |
 +----------------------+-----------------------+---------------------+
 | H-Energy             | Auto Timescale        |     2.06301E-04     |
 +----------------------+-----------------------+---------------------+
 | K-TurbKE             | Auto Timescale        |     2.06301E-04     |
 | E-Diss.K             | Auto Timescale        |     2.06301E-04     |
 +----------------------+-----------------------+---------------------+

 ======================================================================
 OUTER LOOP ITERATION =   36                    CPU SECONDS = 1.006E+03
 ----------------------------------------------------------------------
 |       Equation       | Rate | RMS Res | Max Res |  Linear Solution |
 +----------------------+------+---------+---------+------------------+
 | U-Mom                | 0.96 | 8.0E-04 | 1.4E-03 |       9.7E-03  OK|
 | V-Mom                | 0.99 | 1.1E-05 | 7.8E-05 |       8.4E-01  ok|
 | W-Mom                | 0.99 | 1.1E-05 | 8.0E-05 |       8.7E-01  ok|
 | P-Mass               | 0.99 | 4.9E-05 | 2.0E-04 |  4.9  9.7E-02  OK|
 +----------------------+------+---------+---------+------------------+
 | H-Energy             | 0.95 | 1.6E-03 | 4.6E-03 |  5.8  3.5E-04  OK|
 +----------------------+------+---------+---------+------------------+
 | K-TurbKE             | 0.98 | 2.0E-03 | 9.2E-03 |  5.8  1.2E-03  OK|
 | E-Diss.K             | 0.98 | 6.6E-03 | 4.5E-02 |  7.4  2.1E-04  OK|
 +----------------------+------+---------+---------+------------------+

 ======================================================================
 OUTER LOOP ITERATION =   37                    CPU SECONDS = 1.034E+03
 ----------------------------------------------------------------------
 |       Equation       | Rate | RMS Res | Max Res |  Linear Solution |
 +----------------------+------+---------+---------+------------------+
 | U-Mom                | 0.96 | 7.7E-04 | 1.4E-03 |       1.2E-03  OK|
 | V-Mom                | 0.99 | 1.1E-05 | 7.8E-05 |       1.6E-01  ok|
 | W-Mom                | 0.99 | 1.1E-05 | 7.7E-05 |       1.6E-01  ok|
 | P-Mass               | 0.99 | 4.8E-05 | 2.0E-04 |  8.8  1.3E-02  OK|
 +----------------------+------+---------+---------+------------------+
 | H-Energy             | 0.94 | 1.5E-03 | 4.8E-03 |  5.8  4.0E-04  OK|
 +----------------------+------+---------+---------+------------------+
 | K-TurbKE             | 0.99 | 2.0E-03 | 9.0E-03 |  5.8  1.2E-03  OK|
 | E-Diss.K             | 0.98 | 6.5E-03 | 4.5E-02 |  7.4  2.1E-04  OK|
 +----------------------+------+---------+---------+------------------+

 ======================================================================
 OUTER LOOP ITERATION =   38                    CPU SECONDS = 1.063E+03
 ----------------------------------------------------------------------
 |       Equation       | Rate | RMS Res | Max Res |  Linear Solution |
 +----------------------+------+---------+---------+------------------+
 | U-Mom                | 0.96 | 7.4E-04 | 1.4E-03 |       1.2E-03  OK|
 | V-Mom                | 0.71 | 7.5E-06 | 6.9E-05 |       2.4E-01  ok|
 | W-Mom                | 0.71 | 7.6E-06 | 6.9E-05 |       2.4E-01  ok|
 | P-Mass               | 0.98 | 4.7E-05 | 1.9E-04 |  8.8  1.3E-02  OK|
 +----------------------+------+---------+---------+------------------+
 | H-Energy             | 0.96 | 1.4E-03 | 5.0E-03 |  5.8  4.5E-04  OK|
 +----------------------+------+---------+---------+------------------+
 | K-TurbKE             | 0.99 | 1.9E-03 | 8.8E-03 |  5.8  1.2E-03  OK|
 | E-Diss.K             | 0.98 | 6.4E-03 | 4.4E-02 |  7.4  2.2E-04  OK|
 +----------------------+------+---------+---------+------------------+

 ======================================================================
 OUTER LOOP ITERATION =   39                    CPU SECONDS = 1.092E+03
 ----------------------------------------------------------------------
 |       Equation       | Rate | RMS Res | Max Res |  Linear Solution |
 +----------------------+------+---------+---------+------------------+
 | U-Mom                | 0.96 | 7.1E-04 | 1.3E-03 |       1.3E-03  OK|
 | V-Mom                | 0.76 | 5.7E-06 | 6.7E-05 |       2.9E-01  ok|
 | W-Mom                | 0.75 | 5.7E-06 | 6.6E-05 |       2.9E-01  ok|
 | P-Mass               | 0.99 | 4.7E-05 | 1.8E-04 |  8.8  1.4E-02  OK|
 +----------------------+------+---------+---------+------------------+
 | H-Energy             | 0.96 | 1.4E-03 | 5.1E-03 |  5.8  4.9E-04  OK|
 +----------------------+------+---------+---------+------------------+
 | K-TurbKE             | 0.98 | 1.9E-03 | 8.6E-03 |  5.8  1.3E-03  OK|
 | E-Diss.K             | 0.98 | 6.3E-03 | 4.3E-02 |  7.4  2.3E-04  OK|
 +----------------------+------+---------+---------+------------------+

 ======================================================================
 OUTER LOOP ITERATION =   40                    CPU SECONDS = 1.121E+03
 ----------------------------------------------------------------------
 |       Equation       | Rate | RMS Res | Max Res |  Linear Solution |
 +----------------------+------+---------+---------+------------------+
 | U-Mom                | 0.96 | 6.9E-04 | 1.3E-03 |       1.3E-03  OK|
 | V-Mom                | 0.97 | 5.5E-06 | 6.5E-05 |       3.1E-01  ok|
 | W-Mom                | 0.96 | 5.5E-06 | 6.4E-05 |       3.1E-01  ok|
 | P-Mass               | 0.99 | 4.6E-05 | 1.9E-04 |  8.8  1.4E-02  OK|
 +----------------------+------+---------+---------+------------------+
 | H-Energy             | 0.96 | 1.3E-03 | 5.1E-03 |  5.8  5.4E-04  OK|
 +----------------------+------+---------+---------+------------------+
 | K-TurbKE             | 0.98 | 1.9E-03 | 8.4E-03 |  5.8  1.3E-03  OK|
 | E-Diss.K             | 0.98 | 6.1E-03 | 4.2E-02 |  7.4  2.4E-04  OK|
 +----------------------+------+---------+---------+------------------+

 ======================================================================
 |                        Timescale Information                       |
 ----------------------------------------------------------------------
 |       Equation       |         Type          |      Timescale      |
 +----------------------+-----------------------+---------------------+
 | U-Mom                | Auto Timescale        |     2.07218E-04     |
 | V-Mom                | Auto Timescale        |     2.07218E-04     |
 | W-Mom                | Auto Timescale        |     2.07218E-04     |
 | P-Mass               | Auto Timescale        |     2.07218E-04     |
 +----------------------+-----------------------+---------------------+
 | H-Energy             | Auto Timescale        |     2.07218E-04     |
 +----------------------+-----------------------+---------------------+
 | K-TurbKE             | Auto Timescale        |     2.07218E-04     |
 | E-Diss.K             | Auto Timescale        |     2.07218E-04     |
 +----------------------+-----------------------+---------------------+

 ======================================================================
 OUTER LOOP ITERATION =   41                    CPU SECONDS = 1.150E+03
 ----------------------------------------------------------------------
 |       Equation       | Rate | RMS Res | Max Res |  Linear Solution |
 +----------------------+------+---------+---------+------------------+
 | U-Mom                | 0.96 | 6.6E-04 | 1.3E-03 |       1.4E-03  OK|
 | V-Mom                | 0.95 | 5.3E-06 | 6.5E-05 |       3.3E-01  ok|
 | W-Mom                | 0.95 | 5.2E-06 | 6.3E-05 |       3.4E-01  ok|
 | P-Mass               | 0.99 | 4.6E-05 | 1.9E-04 |  8.8  1.5E-02  OK|
 +----------------------+------+---------+---------+------------------+
 | H-Energy             | 0.96 | 1.3E-03 | 4.9E-03 |  5.8  6.3E-04  OK|
 +----------------------+------+---------+---------+------------------+
 | K-TurbKE             | 0.98 | 1.8E-03 | 8.3E-03 |  5.8  1.4E-03  OK|
 | E-Diss.K             | 0.98 | 6.0E-03 | 4.2E-02 |  7.4  2.5E-04  OK|
 +----------------------+------+---------+---------+------------------+

 ======================================================================
 OUTER LOOP ITERATION =   42                    CPU SECONDS = 1.179E+03
 ----------------------------------------------------------------------
 |       Equation       | Rate | RMS Res | Max Res |  Linear Solution |
 +----------------------+------+---------+---------+------------------+
 | U-Mom                | 0.96 | 6.4E-04 | 1.3E-03 |       1.4E-03  OK|
 | V-Mom                | 0.95 | 5.0E-06 | 6.5E-05 |       3.6E-01  ok|
 | W-Mom                | 0.95 | 4.9E-06 | 6.3E-05 |       3.6E-01  ok|
 | P-Mass               | 1.00 | 4.6E-05 | 1.9E-04 |  8.8  1.6E-02  OK|
 +----------------------+------+---------+---------+------------------+
 | H-Energy             | 0.96 | 1.2E-03 | 4.9E-03 |  5.8  7.4E-04  OK|
 +----------------------+------+---------+---------+------------------+
 | K-TurbKE             | 0.98 | 1.8E-03 | 8.2E-03 |  5.8  1.4E-03  OK|
 | E-Diss.K             | 0.98 | 5.9E-03 | 4.1E-02 |  7.4  2.7E-04  OK|
 +----------------------+------+---------+---------+------------------+

 ======================================================================
 OUTER LOOP ITERATION =   43                    CPU SECONDS = 1.208E+03
 ----------------------------------------------------------------------
 |       Equation       | Rate | RMS Res | Max Res |  Linear Solution |
 +----------------------+------+---------+---------+------------------+
 | U-Mom                | 0.96 | 6.1E-04 | 1.2E-03 |       1.5E-03  OK|
 | V-Mom                | 0.96 | 4.8E-06 | 6.6E-05 |       3.8E-01  ok|
 | W-Mom                | 0.96 | 4.7E-06 | 6.3E-05 |       3.9E-01  ok|
 | P-Mass               | 1.00 | 4.6E-05 | 1.9E-04 |  8.8  1.7E-02  OK|
 +----------------------+------+---------+---------+------------------+
 | H-Energy             | 0.96 | 1.2E-03 | 4.7E-03 |  5.8  8.9E-04  OK|
 +----------------------+------+---------+---------+------------------+
 | K-TurbKE             | 0.98 | 1.8E-03 | 8.1E-03 |  5.8  1.5E-03  OK|
 | E-Diss.K             | 0.98 | 5.8E-03 | 4.0E-02 |  7.4  2.8E-04  OK|
 +----------------------+------+---------+---------+------------------+

 ======================================================================
 OUTER LOOP ITERATION =   44                    CPU SECONDS = 1.237E+03
 ----------------------------------------------------------------------
 |       Equation       | Rate | RMS Res | Max Res |  Linear Solution |
 +----------------------+------+---------+---------+------------------+
 | U-Mom                | 0.96 | 5.9E-04 | 1.2E-03 |       1.5E-03  OK|
 | V-Mom                | 0.96 | 4.6E-06 | 6.6E-05 |       4.1E-01  ok|
 | W-Mom                | 0.97 | 4.6E-06 | 6.4E-05 |       4.1E-01  ok|
 | P-Mass               | 1.00 | 4.6E-05 | 2.0E-04 |  8.8  1.7E-02  OK|
 +----------------------+------+---------+---------+------------------+
 | H-Energy             | 0.96 | 1.1E-03 | 4.9E-03 |  5.8  1.1E-03  OK|
 +----------------------+------+---------+---------+------------------+
 | K-TurbKE             | 0.98 | 1.7E-03 | 8.0E-03 |  5.8  1.5E-03  OK|
 | E-Diss.K             | 0.98 | 5.7E-03 | 4.0E-02 |  7.4  2.9E-04  OK|
 +----------------------+------+---------+---------+------------------+

 ======================================================================
 OUTER LOOP ITERATION =   45                    CPU SECONDS = 1.266E+03
 ----------------------------------------------------------------------
 |       Equation       | Rate | RMS Res | Max Res |  Linear Solution |
 +----------------------+------+---------+---------+------------------+
 | U-Mom                | 0.96 | 5.7E-04 | 1.2E-03 |       1.6E-03  OK|
 | V-Mom                | 0.97 | 4.5E-06 | 6.7E-05 |       4.3E-01  ok|
 | W-Mom                | 0.97 | 4.4E-06 | 6.4E-05 |       4.4E-01  ok|
 | P-Mass               | 1.00 | 4.6E-05 | 2.0E-04 |  8.8  1.8E-02  OK|
 +----------------------+------+---------+---------+------------------+
 | H-Energy             | 0.96 | 1.1E-03 | 5.3E-03 |  5.8  1.2E-03  OK|
 +----------------------+------+---------+---------+------------------+
 | K-TurbKE             | 0.98 | 1.7E-03 | 8.0E-03 |  5.8  1.6E-03  OK|
 | E-Diss.K             | 0.98 | 5.6E-03 | 4.0E-02 |  7.4  3.1E-04  OK|
 +----------------------+------+---------+---------+------------------+

 ======================================================================
 |                        Timescale Information                       |
 ----------------------------------------------------------------------
 |       Equation       |         Type          |      Timescale      |
 +----------------------+-----------------------+---------------------+
 | U-Mom                | Auto Timescale        |     2.08164E-04     |
 | V-Mom                | Auto Timescale        |     2.08164E-04     |
 | W-Mom                | Auto Timescale        |     2.08164E-04     |
 | P-Mass               | Auto Timescale        |     2.08164E-04     |
 +----------------------+-----------------------+---------------------+
 | H-Energy             | Auto Timescale        |     2.08164E-04     |
 +----------------------+-----------------------+---------------------+
 | K-TurbKE             | Auto Timescale        |     2.08164E-04     |
 | E-Diss.K             | Auto Timescale        |     2.08164E-04     |
 +----------------------+-----------------------+---------------------+

 ======================================================================
 OUTER LOOP ITERATION =   46                    CPU SECONDS = 1.295E+03
 ----------------------------------------------------------------------
 |       Equation       | Rate | RMS Res | Max Res |  Linear Solution |
 +----------------------+------+---------+---------+------------------+
 | U-Mom                | 0.96 | 5.5E-04 | 1.2E-03 |       1.7E-03  OK|
 | V-Mom                | 0.97 | 4.4E-06 | 6.7E-05 |       4.6E-01  ok|
 | W-Mom                | 0.98 | 4.3E-06 | 6.4E-05 |       4.6E-01  ok|
 | P-Mass               | 1.00 | 4.5E-05 | 2.1E-04 |  8.8  1.9E-02  OK|
 +----------------------+------+---------+---------+------------------+
 | H-Energy             | 0.96 | 1.0E-03 | 5.1E-03 |  5.8  1.4E-03  OK|
 +----------------------+------+---------+---------+------------------+
 | K-TurbKE             | 0.98 | 1.7E-03 | 8.0E-03 |  5.8  1.7E-03  OK|
 | E-Diss.K             | 0.98 | 5.5E-03 | 4.0E-02 |  7.4  3.3E-04  OK|
 +----------------------+------+---------+---------+------------------+

 ======================================================================
 OUTER LOOP ITERATION =   47                    CPU SECONDS = 1.324E+03
 ----------------------------------------------------------------------
 |       Equation       | Rate | RMS Res | Max Res |  Linear Solution |
 +----------------------+------+---------+---------+------------------+
 | U-Mom                | 0.96 | 5.3E-04 | 1.2E-03 |       1.7E-03  OK|
 | V-Mom                | 0.98 | 4.3E-06 | 6.8E-05 |       4.7E-01  ok|
 | W-Mom                | 0.98 | 4.3E-06 | 6.5E-05 |       4.8E-01  ok|
 | P-Mass               | 1.00 | 4.5E-05 | 2.1E-04 |  8.8  2.0E-02  OK|
 +----------------------+------+---------+---------+------------------+
 | H-Energy             | 0.96 | 9.9E-04 | 5.2E-03 |  5.8  1.6E-03  OK|
 +----------------------+------+---------+---------+------------------+
 | K-TurbKE             | 0.98 | 1.6E-03 | 8.0E-03 |  5.8  1.8E-03  OK|
 | E-Diss.K             | 0.98 | 5.4E-03 | 4.0E-02 |  7.4  3.4E-04  OK|
 +----------------------+------+---------+---------+------------------+

 ======================================================================
 OUTER LOOP ITERATION =   48                    CPU SECONDS = 1.353E+03
 ----------------------------------------------------------------------
 |       Equation       | Rate | RMS Res | Max Res |  Linear Solution |
 +----------------------+------+---------+---------+------------------+
 | U-Mom                | 0.96 | 5.1E-04 | 1.2E-03 |       1.8E-03  OK|
 | V-Mom                | 0.99 | 4.2E-06 | 6.8E-05 |       4.9E-01  ok|
 | W-Mom                | 0.99 | 4.2E-06 | 6.6E-05 |       5.0E-01  ok|
 | P-Mass               | 1.00 | 4.5E-05 | 2.2E-04 |  8.8  2.1E-02  OK|
 +----------------------+------+---------+---------+------------------+
 | H-Energy             | 0.96 | 9.5E-04 | 5.2E-03 |  5.8  1.8E-03  OK|
 +----------------------+------+---------+---------+------------------+
 | K-TurbKE             | 0.98 | 1.6E-03 | 8.0E-03 |  5.8  1.8E-03  OK|
 | E-Diss.K             | 0.98 | 5.3E-03 | 4.0E-02 |  7.4  3.6E-04  OK|
 +----------------------+------+---------+---------+------------------+

[...]
 | E-Diss.K             | 1.01 | 2.3E-04 | 4.2E-03 |  7.4  5.3E-04  OK|
 +----------------------+------+---------+---------+------------------+

 ======================================================================
 OUTER LOOP ITERATION =  117                    CPU SECONDS = 3.337E+03
 ----------------------------------------------------------------------
 |       Equation       | Rate | RMS Res | Max Res |  Linear Solution |
 +----------------------+------+---------+---------+------------------+
 | U-Mom                | 0.90 | 7.1E-05 | 3.5E-03 |       2.7E-02  OK|
 | V-Mom                | 0.90 | 3.7E-05 | 2.1E-03 |       4.2E-02  OK|
 | W-Mom                | 0.90 | 3.7E-05 | 2.0E-03 |       5.8E-02  OK|
 | P-Mass               | 0.89 | 2.0E-05 | 5.4E-04 |  4.9  7.9E-02  OK|
 +----------------------+------+---------+---------+------------------+
 | H-Energy             | 0.91 | 1.1E-04 | 5.9E-03 |  5.8  8.7E-03  OK|
 +----------------------+------+---------+---------+------------------+
 | K-TurbKE             | 1.00 | 1.1E-04 | 1.6E-03 |  5.8  2.6E-03  OK|
 | E-Diss.K             | 1.00 | 2.3E-04 | 3.5E-03 |  7.4  6.0E-04  OK|
 +----------------------+------+---------+---------+------------------+

 ======================================================================
 OUTER LOOP ITERATION =  118                    CPU SECONDS = 3.365E+03
 ----------------------------------------------------------------------
 |       Equation       | Rate | RMS Res | Max Res |  Linear Solution |
 +----------------------+------+---------+---------+------------------+
 | U-Mom                | 0.90 | 6.4E-05 | 3.5E-03 |       2.5E-02  OK|
 | V-Mom                | 0.88 | 3.2E-05 | 1.5E-03 |       3.9E-02  OK|
 | W-Mom                | 0.79 | 3.0E-05 | 1.3E-03 |       5.6E-02  OK|
 | P-Mass               | 0.87 | 1.7E-05 | 4.7E-04 |  4.9  7.4E-02  OK|
 +----------------------+------+---------+---------+------------------+
 | H-Energy             | 1.04 | 1.1E-04 | 8.1E-03 |  5.8  6.6E-03  OK|
 +----------------------+------+---------+---------+------------------+
 | K-TurbKE             | 1.00 | 1.1E-04 | 1.6E-03 |  5.8  2.8E-03  OK|
 | E-Diss.K             | 1.00 | 2.3E-04 | 3.2E-03 |  7.4  6.5E-04  OK|
 +----------------------+------+---------+---------+------------------+

 ======================================================================
 OUTER LOOP ITERATION =  119                    CPU SECONDS = 3.393E+03
 ----------------------------------------------------------------------
 |       Equation       | Rate | RMS Res | Max Res |  Linear Solution |
 +----------------------+------+---------+---------+------------------+
 | U-Mom                | 0.93 | 5.9E-05 | 3.1E-03 |       2.5E-02  OK|
 | V-Mom                | 0.84 | 2.7E-05 | 1.1E-03 |       4.1E-02  OK|
 | W-Mom                | 0.90 | 2.7E-05 | 1.1E-03 |       5.7E-02  OK|
 | P-Mass               | 0.86 | 1.5E-05 | 4.2E-04 |  4.9  7.7E-02  OK|
 +----------------------+------+---------+---------+------------------+
 | H-Energy             | 0.93 | 1.0E-04 | 8.4E-03 |  5.8  5.5E-03  OK|
 +----------------------+------+---------+---------+------------------+
 | K-TurbKE             | 0.99 | 1.1E-04 | 1.7E-03 |  5.8  3.0E-03  OK|
 | E-Diss.K             | 1.00 | 2.3E-04 | 3.0E-03 |  7.4  6.7E-04  OK|
 +----------------------+------+---------+---------+------------------+

 ======================================================================
 OUTER LOOP ITERATION =  120                    CPU SECONDS = 3.421E+03
 ----------------------------------------------------------------------
 |       Equation       | Rate | RMS Res | Max Res |  Linear Solution |
 +----------------------+------+---------+---------+------------------+
 | U-Mom                | 0.88 | 5.2E-05 | 2.9E-03 |       3.0E-02  OK|
 | V-Mom                | 0.90 | 2.4E-05 | 9.4E-04 |       4.9E-02  OK|
 | W-Mom                | 0.90 | 2.4E-05 | 8.5E-04 |       6.6E-02  OK|
 | P-Mass               | 0.86 | 1.3E-05 | 3.7E-04 |  4.9  9.3E-02  OK|
 +----------------------+------+---------+---------+------------------+
 | H-Energy             | 0.90 | 9.3E-05 | 8.7E-03 |  5.8  5.1E-03  OK|
 +----------------------+------+---------+---------+------------------+
 | K-TurbKE             | 1.00 | 1.1E-04 | 2.0E-03 |  5.8  3.1E-03  OK|
 | E-Diss.K             | 1.01 | 2.3E-04 | 3.6E-03 |  7.4  6.8E-04  OK|
 +----------------------+------+---------+---------+------------------+
                   
 CFD Solver finished: Mon May 03 20:02:27 2021
 CFD Solver wall clock seconds: 3.4366E+03

 ======================================================================
              Termination and Interrupt Condition Summary
 ======================================================================
    
 CFD Solver: All target criteria reached
   (Equation residuals)

 ======================================================================
              Boundary Flow and Total Source Term Summary
 ======================================================================

 +--------------------------------------------------------------------+
 |                               U-Mom                                |
 +--------------------------------------------------------------------+
 Boundary         : Inlet                                   9.8400E+02
 Boundary         : Outlet                                 -1.8527E+02
 Boundary         : Wall                                   -7.9564E+02
 Domain Interface : Default Fluid Fluid Interface (Side 1) -2.6221E+01
 Domain Interface : Default Fluid Fluid Interface (Side 2)  2.6221E+01
                                                           -----------
 Domain Imbalance :                                         3.0885E+00

 +--------------------------------------------------------------------+
 |                               V-Mom                                |
 +--------------------------------------------------------------------+
 Boundary         : Inlet                                   1.4457E-10
 Boundary         : Outlet                                 -3.4319E-03
 Boundary         : Wall                                    2.5207E-03
 Domain Interface : Default Fluid Fluid Interface (Side 1)  5.5216E+02
 Domain Interface : Default Fluid Fluid Interface (Side 2) -5.5216E+02
                                                           -----------
 Domain Imbalance :                                        -9.1118E-04

 +--------------------------------------------------------------------+
 |                               W-Mom                                |
 +--------------------------------------------------------------------+
 Boundary         : Inlet                                  -1.1700E-10
 Boundary         : Outlet                                  7.5646E-04
 Boundary         : Wall                                   -3.8191E-03
 Domain Interface : Default Fluid Fluid Interface (Side 1) -2.7263E+03
 Domain Interface : Default Fluid Fluid Interface (Side 2)  2.7263E+03
                                                           -----------
 Domain Imbalance :                                        -3.0626E-03

 +--------------------------------------------------------------------+
 |                               P-Mass                               |
 +--------------------------------------------------------------------+
 Boundary         : Inlet                                   1.0063E+00
 Boundary         : Outlet                                 -9.8911E-01
 Domain Interface : Default Fluid Fluid Interface (Side 1) -1.0347E-01
 Domain Interface : Default Fluid Fluid Interface (Side 2)  1.0347E-01
                                                           -----------
 Domain Imbalance :                                         1.7147E-02

 +--------------------------------------------------------------------+
 |                              H-Energy                              |
 +--------------------------------------------------------------------+
 Bnd Src/Visc Work: Default Fluid Fluid Interface Side 1    1.2774E+02
 Bnd Src/Visc Work: Default Fluid Fluid Interface Side 2   -1.1532E+02
 Boundary         : Inlet                                   1.1977E+04
 Bnd Src/Visc Work: Inlet                                  -9.0967E-04
 Boundary         : Outlet                                 -1.1789E+04
 Bnd Src/Visc Work: Outlet                                 -3.2490E-03
 Domain Src (Neg) : Default Domain                         -3.1492E+04
 Domain Src (Pos) : Default Domain                          3.1492E+04
 Domain Interface : Default Fluid Fluid Interface (Side 1) -2.5660E+03
 Domain Interface : Default Fluid Fluid Interface (Side 2)  2.5660E+03
                                                           -----------
 Domain Imbalance :                                         2.0049E+02


 +--------------------------------------------------------------------+
 |                     Normalised Imbalance Summary                   |
 +--------------------------------------------------------------------+
 |       Equation       |      Maximum Flow     |     Imbalance (%)   |
 +--------------------------------------------------------------------+
 | U-Mom                |       2.7263E+03      |        0.1133       |
 | V-Mom                |       2.7263E+03      |       -0.0000       |
 | W-Mom                |       2.7263E+03      |       -0.0001       |
 | P-Mass               |       1.0063E+00      |        1.7041       |
 +----------------------+-----------------------+---------------------+
 | H-Energy             |       3.1492E+04      |        0.6366       |
 +----------------------+-----------------------+---------------------+

 ======================================================================
                     Wall Force and Moment Summary
 ======================================================================
                                                                          
 Notes:
 1. Pressure integrals exclude the reference pressure.  To include
    it, set the expert parameter 'include pref in forces = t'.


 +--------------------------------------------------------------------+
 |                      Pressure Force On Walls                       |
 +--------------------------------------------------------------------+
                                    X-Comp.      Y-Comp.      Z-Comp.

 Domain Group: Default Domain

 Wall                             7.5743E+02  -2.5396E-03   3.7326E-03
                                  -----------  -----------  -----------
 Domain Group Totals :            7.5743E+02  -2.5396E-03   3.7326E-03


 +--------------------------------------------------------------------+
 |                       Viscous Force On Walls                       |
 +--------------------------------------------------------------------+
                                    X-Comp.      Y-Comp.      Z-Comp.

 Domain Group: Default Domain

 Wall                             3.8207E+01   1.8921E-05   8.6476E-05
                                  -----------  -----------  -----------
 Domain Group Totals :            3.8207E+01   1.8921E-05   8.6476E-05


 +--------------------------------------------------------------------+
 |                      Pressure Moment On Walls                      |
 +--------------------------------------------------------------------+
                                    X-Comp.      Y-Comp.      Z-Comp.

 Domain Group: Default Domain

 Wall                            -4.8930E-06  -5.0391E-03  -4.5196E-03
                                  -----------  -----------  -----------
 Domain Group Totals :           -4.8930E-06  -5.0391E-03  -4.5196E-03


 +--------------------------------------------------------------------+
 |                       Viscous Moment On Walls                      |
 +--------------------------------------------------------------------+
                                    X-Comp.      Y-Comp.      Z-Comp.

 Domain Group: Default Domain

 Wall                             4.7339E-05  -7.9115E-05   7.0381E-05
                                  -----------  -----------  -----------
 Domain Group Totals :            4.7339E-05  -7.9115E-05   7.0381E-05


 +--------------------------------------------------------------------+
 |                   Locations of Maximum Residuals                   |
 +--------------------------------------------------------------------+
 |       Equation       |      Domain Name      |     Node Number     |
 +--------------------------------------------------------------------+
 | U-Mom                | Default Domain        |         104347      |
 | V-Mom                | Default Domain        |          61994      |
 | W-Mom                | Default Domain        |          77953      |
 | P-Mass               | Default Domain        |         111859      |
 +----------------------+-----------------------+---------------------+
 | H-Energy             | Default Domain        |          53653      |
 +----------------------+-----------------------+---------------------+
 | K-TurbKE             | Default Domain        |          89490      |
 | E-Diss.K             | Default Domain        |          89490      |
 +----------------------+-----------------------+---------------------+

 ======================================================================
 |                     False Transient Information                    |
 +--------------------------------------------------------------------+
 |       Equation       |         Type          | Elapsed Pseudo-Time |
 +--------------------------------------------------------------------+
 | U-Mom                | Auto Timescale        |     3.18950E-02     |
 | V-Mom                | Auto Timescale        |     3.18950E-02     |
 | W-Mom                | Auto Timescale        |     3.18950E-02     |
 | P-Mass               | Auto Timescale        |     3.18950E-02     |
 +----------------------+-----------------------+---------------------+
 | H-Energy             | Auto Timescale        |     3.18950E-02     |
 +----------------------+-----------------------+---------------------+
 | K-TurbKE             | Auto Timescale        |     3.18950E-02     |
 | E-Diss.K             | Auto Timescale        |     3.18950E-02     |
 +----------------------+-----------------------+---------------------+

 +--------------------------------------------------------------------+
 |                     Average Scale Information                      |
 +--------------------------------------------------------------------+

 Domain Name : Default Domain
     Global Length                                         = 2.0901E-01
     Minimum Extent                                        = 1.2620E-01
     Maximum Extent                                        = 2.0000E+00
     Density                                               = 1.3862E+00
     Dynamic Viscosity                                     = 1.8310E-05
     Velocity                                              = 2.7312E+02
     Advection Time                                        = 7.6525E-04
     Reynolds Number                                       = 4.3219E+06
     Speed of Sound                                        = 3.2799E+02
     Mach Number                                           = 8.3272E-01
     Thermal Conductivity                                  = 2.6100E-02
     Specific Heat Capacity at Constant Pressure           = 1.0044E+03
     Specific Heat Capacity at Constant Volume             = 7.1730E+02
     Specific Heat Ratio                                   = 1.4003E+00
     Prandtl Number                                        = 7.0462E-01
     Temperature Range                                     = 1.1956E+02

 +--------------------------------------------------------------------+
 |                     Variable Range Information                     |
 +--------------------------------------------------------------------+

 Domain Name : Default Domain
 +--------------------------------------------------------------------+
 |      Variable Name                         |    min    |    max    |
 +--------------------------------------------------------------------+
 | Density                                    |  4.58E-01 |  2.00E+00 |
 | Specific Heat Capacity at Constant Pressure|  1.00E+03 |  1.00E+03 |
 | Dynamic Viscosity                          |  1.83E-05 |  1.83E-05 |
 | Thermal Conductivity                       |  2.61E-02 |  2.61E-02 |
 | Isothermal Compressibility                 |  5.64E-06 |  3.14E-05 |
 | Static Entropy                             | -1.25E+02 |  1.69E+02 |
 | Velocity u                                 | -1.16E+01 |  4.92E+02 |
 | Velocity v                                 | -8.04E+01 |  8.05E+01 |
 | Velocity w                                 | -8.05E+01 |  8.06E+01 |
 | Pressure                                   | -6.94E+04 |  7.60E+04 |
 | Turbulence Kinetic Energy                  |  4.54E-02 |  3.29E+03 |
 | Turbulence Eddy Dissipation                |  6.06E+00 |  2.17E+07 |
 | Eddy Viscosity                             |  2.52E-06 |  1.03E-01 |
 | Temperature                                |  1.90E+02 |  3.09E+02 |
 | Static Enthalpy                            | -1.09E+05 |  1.11E+04 |
 | Total Enthalpy                             |  8.32E+03 |  1.43E+04 |
 +--------------------------------------------------------------------+

 +--------------------------------------------------------------------+
 |               CPU Requirements of Numerical Solution               |
 +--------------------------------------------------------------------+

 Subsystem Name                  Discretization       Linear Solution
                                (secs.   %total)     (secs.   %total) 
 ----------------------------------------------------------------------
 Momentum and Mass              1.73E+03  49.9 %     2.97E+02   8.6 %
 Heat Transfer                  5.20E+02  15.0 %     6.62E+01   1.9 %
 TurbKE and Diss.K              4.86E+02  14.0 %     1.53E+02   4.4 %
                                -------- -------     --------  ------
 Subsystem Summary              2.74E+03  78.9 %     5.16E+02  14.9 %

 Variable Updates               1.81E+02    5.2 %
 GGI Intersection               4.11E+00    0.1 %
 Search Calculations            3.94E-03    0.0 %
 File Reading                   6.50E-02    0.0 %
 File Writing                   1.12E+01    0.3 %
 Miscellaneous                  1.90E+01    0.5 %
                                --------
 Total                          3.47E+03

 +--------------------------------------------------------------------+
 |                   Job Information at End of Run                    |
 +--------------------------------------------------------------------+

 Host computer:  DESKTOP-77TRS1E (PID:9712)

 Job finished:   Mon May 03 20:02:45 2021

 Total wall clock time: 3.467E+03 seconds
             or: (          0:         0:        57:    47.389 )
                 (       Days:     Hours:   Minutes:   Seconds )

End of solution stage.

 +--------------------------------------------------------------------+
 | The results from this run of the ANSYS CFX Solver have been        |
 | written to G:/Kuliah/Tugas/Semester 10/CFD 2/CD Duct/2D CD         |
 | duct_pending/dp0_CFX_Solution_2/CFX_002.res                        |
 +--------------------------------------------------------------------+


 +--------------------------------------------------------------------+
 | For CFX runs launched from Workbench, the final locations of       |
 | directories and files generated may differ from those shown.       |
 +--------------------------------------------------------------------+


This run of the ANSYS CFX Solver has finished.
